xflr5 v6.33

 Calculated polar for: NACA 0012 v1

 1 1 Reynolds number fixed          Mach number fixed         

 xtrf =   1.000 (top)        1.000 (bottom)
 Mach =   0.000     Re =     2.800 e 6     Ncrit =   9.000

  alpha     CL        CD       CDp       Cm    Top Xtr Bot Xtr   Cpmin    Chinge    XCp    
 ------- -------- --------- --------- -------- ------- ------- -------- --------- ---------
 -25.500  -1.1340   0.24195   0.24069   0.1018  1.0000  0.0070  -8.4648   0.0000   0.2974
 -25.000  -1.1320   0.23356   0.23226   0.0943  1.0000  0.0074  -8.6239   0.0000   0.2920
 -24.500  -1.1341   0.22401   0.22266   0.0862  1.0000  0.0077  -8.8472   0.0000   0.2856
 -24.000  -1.1392   0.21384   0.21240   0.0777  1.0000  0.0079  -9.0929   0.0000   0.2788
 -23.500  -1.1470   0.20316   0.20164   0.0690  1.0000  0.0082  -9.3458   0.0000   0.2717
 -23.000  -1.1581   0.19197   0.19034   0.0600  1.0000  0.0084  -9.6068   0.0000   0.2643
 -22.500  -1.1748   0.17971   0.17797   0.0505  1.0000  0.0085  -9.9136   0.0000   0.2565
 -22.000  -1.2099   0.16382   0.16192   0.0386  1.0000  0.0086  -10.4558   0.0000   0.2463
 -21.500  -1.2716   0.14326   0.14113   0.0241  1.0000  0.0086  -11.2735   0.0000   0.2343
 -21.000  -1.3476   0.12124   0.11883   0.0101  1.0000  0.0085  -12.1175   0.0000   0.2239
 -20.500  -1.4563   0.09493   0.09216  -0.0048  1.0000  0.0084  -13.1951   0.0000   0.2143
 -20.000  -1.5391   0.07448   0.07138  -0.0154  1.0000  0.0084  -13.8497   0.0000   0.2090
 -19.500  -1.5883   0.06021   0.05684  -0.0224  1.0000  0.0084  -14.0848   0.0000   0.2063
 -19.000  -1.6145   0.04999   0.04639  -0.0270  1.0000  0.0085  -14.0540   0.0000   0.2050
 -18.500  -1.6331   0.04145   0.03764  -0.0301  1.0000  0.0086  -13.9324   0.0000   0.2047
 -18.000  -1.6426   0.03484   0.03083  -0.0314  1.0000  0.0089  -13.7097   0.0000   0.2053
 -17.500  -1.6391   0.03035   0.02619  -0.0309  1.0000  0.0091  -13.3555   0.0000   0.2067
 -17.000  -1.6276   0.02711   0.02283  -0.0293  1.0000  0.0094  -12.9347   0.0000   0.2087
 -16.500  -1.6110   0.02465   0.02026  -0.0270  1.0000  0.0097  -12.4834   0.0000   0.2110
 -16.000  -1.5903   0.02274   0.01825  -0.0241  1.0000  0.0099  -12.0043   0.0000   0.2137
 -15.500  -1.5658   0.02124   0.01665  -0.0208  1.0000  0.0101  -11.5028   0.0000   0.2165
 -15.000  -1.5423   0.01981   0.01511  -0.0168  1.0000  0.0105  -11.0201   0.0000   0.2198
 -14.500  -1.5113   0.01853   0.01378  -0.0137  1.0000  0.0111  -10.4942   0.0000   0.2225
 -14.000  -1.4726   0.01752   0.01271  -0.0117  1.0000  0.0116  -9.9258   0.0000   0.2246
 -13.500  -1.4306   0.01664   0.01177  -0.0100  1.0000  0.0120  -9.3509   0.0000   0.2264
 -13.000  -1.3889   0.01563   0.01071  -0.0083  1.0000  0.0128  -8.7983   0.0000   0.2283
 -12.500  -1.3445   0.01479   0.00983  -0.0068  1.0000  0.0135  -8.2390   0.0000   0.2299
 -12.000  -1.2980   0.01410   0.00910  -0.0056  1.0000  0.0142  -7.7019   0.0000   0.2315
 -11.500  -1.2523   0.01330   0.00827  -0.0042  1.0000  0.0153  -7.1921   0.0000   0.2332
 -11.000  -1.2051   0.01268   0.00763  -0.0029  1.0000  0.0163  -6.6842   0.0000   0.2349
 -10.500  -1.1597   0.01203   0.00696  -0.0012  1.0000  0.0176  -6.2027   0.0000   0.2370
 -10.000  -1.1146   0.01151   0.00643   0.0007  1.0000  0.0188  -5.7346   0.0000   0.2393
  -9.500  -1.0716   0.01095   0.00587   0.0031  1.0000  0.0206  -5.3043   0.0000   0.2422
  -9.000  -1.0252   0.01045   0.00537   0.0048  0.9997  0.0227  -4.8808   0.0000   0.2446
  -8.500  -0.9618   0.00991   0.00485   0.0028  0.9981  0.0255  -4.4052   0.0000   0.2434
  -8.000  -0.8974   0.00941   0.00438   0.0006  0.9964  0.0292  -3.9530   0.0000   0.2418
  -7.500  -0.8330   0.00893   0.00393  -0.0015  0.9942  0.0338  -3.5331   0.0000   0.2398
  -7.000  -0.7690   0.00847   0.00352  -0.0035  0.9912  0.0402  -3.1354   0.0000   0.2376
  -6.500  -0.7086   0.00803   0.00314  -0.0046  0.9849  0.0486  -2.7817   0.0000   0.2361
  -6.000  -0.6537   0.00764   0.00281  -0.0043  0.9729  0.0593  -2.4644   0.0000   0.2363
  -5.500  -0.6013   0.00727   0.00249  -0.0035  0.9566  0.0740  -2.1767   0.0000   0.2375
  -5.000  -0.5487   0.00691   0.00219  -0.0027  0.9358  0.0935  -1.9123   0.0000   0.2388
  -4.500  -0.4954   0.00658   0.00191  -0.0020  0.9102  0.1194  -1.6673   0.0000   0.2399
  -4.000  -0.4417   0.00627   0.00165  -0.0015  0.8797  0.1524  -1.4436   0.0000   0.2409
  -3.500  -0.3875   0.00599   0.00143  -0.0011  0.8441  0.1915  -1.2415   0.0000   0.2417
  -3.000  -0.3329   0.00575   0.00124  -0.0008  0.8042  0.2354  -1.0624   0.0000   0.2425
  -2.000  -0.2229   0.00539   0.00096  -0.0003  0.7149  0.3306  -0.7689   0.0000   0.2437
  -1.500  -0.1674   0.00527   0.00087  -0.0002  0.6680  0.3792  -0.6540   0.0000   0.2441
  -1.000  -0.1117   0.00519   0.00080  -0.0001  0.6206  0.4282  -0.5585   0.0000   0.2444
  -0.500  -0.0559   0.00514   0.00077  -0.0001  0.5730  0.4769  -0.4794   0.0000   0.2446
   0.000  -0.0000   0.00512   0.00075  -0.0000  0.5251  0.5251  -0.4131   0.0000   0.3802
   0.500   0.0559   0.00514   0.00077   0.0001  0.4769  0.5730  -0.4794   0.0000   0.2446
   1.000   0.1117   0.00519   0.00080   0.0001  0.4283  0.6207  -0.5585   0.0000   0.2444
   1.500   0.1674   0.00527   0.00087   0.0002  0.3792  0.6680  -0.6540   0.0000   0.2441
   2.000   0.2229   0.00539   0.00096   0.0003  0.3306  0.7149  -0.7689   0.0000   0.2437
   3.000   0.3330   0.00575   0.00124   0.0008  0.2354  0.8042  -1.0624   0.0000   0.2425
   3.500   0.3875   0.00599   0.00143   0.0012  0.1915  0.8441  -1.2415   0.0000   0.2417
   4.000   0.4417   0.00627   0.00165   0.0016  0.1524  0.8797  -1.4436   0.0000   0.2409
   4.500   0.4954   0.00658   0.00191   0.0021  0.1194  0.9102  -1.6673   0.0000   0.2399
   5.000   0.5487   0.00691   0.00219   0.0028  0.0935  0.9357  -1.9124   0.0000   0.2388
   5.500   0.6014   0.00727   0.00249   0.0036  0.0740  0.9565  -2.1768   0.0000   0.2375
   6.500   0.7086   0.00803   0.00314   0.0047  0.0485  0.9849  -2.7818   0.0000   0.2361
   7.000   0.7690   0.00847   0.00352   0.0037  0.0402  0.9912  -3.1356   0.0000   0.2376
   7.500   0.8331   0.00893   0.00393   0.0017  0.0338  0.9942  -3.5332   0.0000   0.2399
   8.000   0.8975   0.00941   0.00438  -0.0003  0.0292  0.9964  -3.9532   0.0000   0.2418
   8.500   0.9619   0.00991   0.00485  -0.0025  0.0255  0.9981  -4.4054   0.0000   0.2435
   9.000   1.0253   0.01045   0.00537  -0.0044  0.0227  0.9998  -4.8811   0.0000   0.2446
   9.500   1.0716   0.01095   0.00587  -0.0026  0.0206  1.0000  -5.3039   0.0000   0.2422
  10.000   1.1145   0.01151   0.00643  -0.0002  0.0188  1.0000  -5.7343   0.0000   0.2393
  10.500   1.1597   0.01203   0.00696   0.0017  0.0176  1.0000  -6.2026   0.0000   0.2369
  11.000   1.2052   0.01268   0.00763   0.0035  0.0163  1.0000  -6.6844   0.0000   0.2349
  11.500   1.2524   0.01330   0.00827   0.0048  0.0153  1.0000  -7.1925   0.0000   0.2332
  12.000   1.2981   0.01410   0.00910   0.0063  0.0141  1.0000  -7.7025   0.0000   0.2315
  12.500   1.3446   0.01479   0.00983   0.0075  0.0135  1.0000  -8.2398   0.0000   0.2300
  13.000   1.3891   0.01564   0.01071   0.0090  0.0128  1.0000  -8.7993   0.0000   0.2283
  13.500   1.4308   0.01664   0.01177   0.0108  0.0120  1.0000  -9.3522   0.0000   0.2264
  14.000   1.4728   0.01752   0.01271   0.0125  0.0116  1.0000  -9.9274   0.0000   0.2246
  14.500   1.5116   0.01854   0.01378   0.0146  0.0111  1.0000  -10.4963   0.0000   0.2226
  15.000   1.5428   0.01981   0.01512   0.0177  0.0105  1.0000  -11.0230   0.0000   0.2199
  15.500   1.5664   0.02124   0.01665   0.0218  0.0101  1.0000  -11.5069   0.0000   0.2165
  16.000   1.5910   0.02274   0.01824   0.0250  0.0099  1.0000  -12.0091   0.0000   0.2137
  16.500   1.6118   0.02464   0.02025   0.0280  0.0096  1.0000  -12.4891   0.0000   0.2111
  17.000   1.6286   0.02709   0.02281   0.0304  0.0094  1.0000  -12.9413   0.0000   0.2088
  17.500   1.6402   0.03033   0.02617   0.0320  0.0091  1.0000  -13.3635   0.0000   0.2068
  18.000   1.6437   0.03482   0.03081   0.0325  0.0089  1.0000  -13.7185   0.0000   0.2054
  18.500   1.6343   0.04144   0.03762   0.0312  0.0086  1.0000  -13.9413   0.0000   0.2048
  19.000   1.6164   0.04990   0.04630   0.0281  0.0085  1.0000  -14.0699   0.0000   0.2052
  19.500   1.5905   0.06009   0.05672   0.0235  0.0084  1.0000  -14.1035   0.0000   0.2064
  20.000   1.5416   0.07431   0.07121   0.0164  0.0084  1.0000  -13.8718   0.0000   0.2091
  20.500   1.4590   0.09473   0.09196   0.0058  0.0084  1.0000  -13.2202   0.0000   0.2144
  21.000   1.3485   0.12138   0.11897  -0.0094  0.0085  1.0000  -12.1208   0.0000   0.2241
  21.500   1.2724   0.14339   0.14126  -0.0235  0.0086  1.0000  -11.2762   0.0000   0.2345
  22.000   1.2108   0.16400   0.16210  -0.0381  0.0086  1.0000  -10.4587   0.0000   0.2465
  22.500   1.1760   0.17986   0.17811  -0.0500  0.0085  1.0000  -9.9215   0.0000   0.2566
  23.000   1.1593   0.19218   0.19055  -0.0596  0.0084  1.0000  -9.6136   0.0000   0.2645
  23.500   1.1483   0.20344   0.20191  -0.0686  0.0082  1.0000  -9.3522   0.0000   0.2718
  24.000   1.1405   0.21418   0.21274  -0.0774  0.0079  1.0000  -9.0992   0.0000   0.2790
  24.500   1.1354   0.22439   0.22304  -0.0859  0.0077  1.0000  -8.8532   0.0000   0.2858
  25.000   1.1334   0.23400   0.23270  -0.0941  0.0074  1.0000  -8.6309   0.0000   0.2922
  25.500   1.1354   0.24258   0.24131  -0.1016  0.0070  1.0000  -8.4709   0.0000   0.2975


