xflr5 v6.33

 Calculated polar for: NACA 0012 v1

 1 1 Reynolds number fixed          Mach number fixed         

 xtrf =   1.000 (top)        1.000 (bottom)
 Mach =   0.000     Re =     2.700 e 6     Ncrit =   9.000

  alpha     CL        CD       CDp       Cm    Top Xtr Bot Xtr   Cpmin    Chinge    XCp    
 ------- -------- --------- --------- -------- ------- ------- -------- --------- ---------
 -25.000  -1.1287   0.23449   0.23320   0.0950  1.0000  0.0074  -8.5221   0.0000   0.2930
 -24.500  -1.1315   0.22471   0.22335   0.0867  1.0000  0.0077  -8.7751   0.0000   0.2863
 -24.000  -1.1371   0.21437   0.21293   0.0781  1.0000  0.0080  -9.0390   0.0000   0.2793
 -23.500  -1.1448   0.20370   0.20216   0.0694  1.0000  0.0083  -9.2945   0.0000   0.2722
 -23.000  -1.1547   0.19272   0.19108   0.0606  1.0000  0.0084  -9.5393   0.0000   0.2650
 -22.500  -1.1710   0.18058   0.17883   0.0511  1.0000  0.0085  -9.8442   0.0000   0.2572
 -22.000  -1.2082   0.16416   0.16226   0.0388  1.0000  0.0088  -10.4275   0.0000   0.2465
 -21.500  -1.2688   0.14377   0.14164   0.0244  1.0000  0.0088  -11.2343   0.0000   0.2346
 -21.000  -1.3480   0.12113   0.11871   0.0100  1.0000  0.0087  -12.1237   0.0000   0.2238
 -20.500  -1.4296   0.09943   0.09671  -0.0023  1.0000  0.0085  -12.8870   0.0000   0.2160
 -20.000  -1.5086   0.07929   0.07625  -0.0128  1.0000  0.0085  -13.5165   0.0000   0.2105
 -19.500  -1.5660   0.06349   0.06016  -0.0207  1.0000  0.0085  -13.8509   0.0000   0.2071
 -19.000  -1.6062   0.05110   0.04752  -0.0265  1.0000  0.0086  -13.9708   0.0000   0.2052
 -18.500  -1.6299   0.04183   0.03801  -0.0300  1.0000  0.0088  -13.9021   0.0000   0.2047
 -18.000  -1.6369   0.03545   0.03144  -0.0314  1.0000  0.0090  -13.6552   0.0000   0.2052
 -17.500  -1.6327   0.03095   0.02680  -0.0311  1.0000  0.0092  -13.2953   0.0000   0.2065
 -17.000  -1.6215   0.02762   0.02334  -0.0297  1.0000  0.0095  -12.8788   0.0000   0.2084
 -16.500  -1.6051   0.02508   0.02069  -0.0274  1.0000  0.0098  -12.4325   0.0000   0.2107
 -16.000  -1.5848   0.02311   0.01861  -0.0246  1.0000  0.0100  -11.9581   0.0000   0.2133
 -15.500  -1.5604   0.02157   0.01698  -0.0215  1.0000  0.0102  -11.4587   0.0000   0.2160
 -15.000  -1.5397   0.01996   0.01525  -0.0172  1.0000  0.0107  -10.9991   0.0000   0.2195
 -14.500  -1.5086   0.01873   0.01397  -0.0141  1.0000  0.0112  -10.4714   0.0000   0.2223
 -14.000  -1.4701   0.01772   0.01290  -0.0120  1.0000  0.0117  -9.9047   0.0000   0.2243
 -13.500  -1.4282   0.01685   0.01196  -0.0103  1.0000  0.0121  -9.3316   0.0000   0.2261
 -13.000  -1.3874   0.01577   0.01083  -0.0085  1.0000  0.0129  -8.7857   0.0000   0.2281
 -12.500  -1.3429   0.01494   0.00997  -0.0071  1.0000  0.0137  -8.2265   0.0000   0.2298
 -12.000  -1.2964   0.01426   0.00923  -0.0058  1.0000  0.0142  -7.6900   0.0000   0.2313
 -11.500  -1.2512   0.01342   0.00837  -0.0044  1.0000  0.0154  -7.1833   0.0000   0.2331
 -11.000  -1.2039   0.01281   0.00774  -0.0031  1.0000  0.0164  -6.6752   0.0000   0.2347
 -10.500  -1.1586   0.01213   0.00704  -0.0014  1.0000  0.0178  -6.1953   0.0000   0.2368
 -10.000  -1.1135   0.01161   0.00650   0.0005  1.0000  0.0190  -5.7277   0.0000   0.2391
  -9.500  -1.0704   0.01104   0.00593   0.0029  1.0000  0.0208  -5.2972   0.0000   0.2420
  -9.000  -1.0269   0.01054   0.00543   0.0052  0.9999  0.0229  -4.8862   0.0000   0.2450
  -8.500  -0.9635   0.01000   0.00491   0.0032  0.9983  0.0257  -4.4103   0.0000   0.2438
  -8.000  -0.8990   0.00949   0.00443   0.0010  0.9966  0.0294  -3.9577   0.0000   0.2422
  -7.500  -0.8345   0.00900   0.00397  -0.0011  0.9944  0.0341  -3.5374   0.0000   0.2403
  -7.000  -0.7699   0.00853   0.00355  -0.0033  0.9918  0.0407  -3.1377   0.0000   0.2378
  -6.500  -0.7090   0.00809   0.00317  -0.0045  0.9857  0.0492  -2.7824   0.0000   0.2362
  -6.000  -0.6529   0.00769   0.00283  -0.0045  0.9751  0.0602  -2.4621   0.0000   0.2360
  -5.500  -0.6004   0.00731   0.00251  -0.0037  0.9590  0.0753  -2.1742   0.0000   0.2371
  -5.000  -0.5480   0.00695   0.00221  -0.0029  0.9389  0.0953  -1.9105   0.0000   0.2384
  -4.500  -0.4948   0.00661   0.00193  -0.0022  0.9142  0.1216  -1.6660   0.0000   0.2396
  -4.000  -0.4412   0.00629   0.00167  -0.0016  0.8844  0.1553  -1.4427   0.0000   0.2406
  -3.500  -0.3871   0.00600   0.00144  -0.0012  0.8494  0.1952  -1.2409   0.0000   0.2415
  -3.000  -0.3327   0.00575   0.00125  -0.0008  0.8097  0.2396  -1.0620   0.0000   0.2423
  -2.500  -0.2779   0.00555   0.00109  -0.0006  0.7667  0.2867  -0.9043   0.0000   0.2429
  -2.000  -0.2227   0.00539   0.00097  -0.0004  0.7212  0.3351  -0.7687   0.0000   0.2435
  -1.000  -0.1116   0.00519   0.00081  -0.0001  0.6265  0.4333  -0.5584   0.0000   0.2442
  -0.500  -0.0559   0.00514   0.00077  -0.0001  0.5786  0.4821  -0.4794   0.0000   0.2444
   0.000  -0.0000   0.00512   0.00076  -0.0000  0.5305  0.5305  -0.4131   0.0000   0.3407
   0.500   0.0559   0.00514   0.00077   0.0001  0.4821  0.5786  -0.4794   0.0000   0.2444
   1.000   0.1117   0.00519   0.00081   0.0001  0.4333  0.6265  -0.5584   0.0000   0.2442
   1.500   0.1673   0.00528   0.00087   0.0002  0.3844  0.6741  -0.6540   0.0000   0.2439
   2.000   0.2227   0.00539   0.00097   0.0004  0.3351  0.7212  -0.7687   0.0000   0.2435
   2.500   0.2779   0.00555   0.00109   0.0006  0.2867  0.7667  -0.9043   0.0000   0.2429
   3.000   0.3327   0.00575   0.00125   0.0009  0.2396  0.8097  -1.0620   0.0000   0.2423
   3.500   0.3871   0.00600   0.00144   0.0013  0.1952  0.8494  -1.2409   0.0000   0.2415
   4.000   0.4412   0.00629   0.00167   0.0017  0.1553  0.8844  -1.4427   0.0000   0.2406
   4.500   0.4949   0.00661   0.00193   0.0023  0.1216  0.9142  -1.6661   0.0000   0.2396
   5.000   0.5480   0.00695   0.00221   0.0030  0.0953  0.9389  -1.9106   0.0000   0.2384
   5.500   0.6005   0.00731   0.00251   0.0038  0.0753  0.9590  -2.1743   0.0000   0.2371
   6.000   0.6530   0.00769   0.00283   0.0047  0.0602  0.9751  -2.4622   0.0000   0.2360
   6.500   0.7090   0.00809   0.00317   0.0047  0.0492  0.9857  -2.7825   0.0000   0.2362
   7.000   0.7699   0.00853   0.00355   0.0035  0.0407  0.9918  -3.1378   0.0000   0.2379
   7.500   0.8346   0.00900   0.00397   0.0014  0.0341  0.9945  -3.5375   0.0000   0.2403
   8.000   0.8991   0.00949   0.00443  -0.0007  0.0294  0.9966  -3.9579   0.0000   0.2422
   8.500   0.9635   0.01000   0.00491  -0.0028  0.0257  0.9983  -4.4106   0.0000   0.2439
   9.000   1.0270   0.01054   0.00543  -0.0048  0.0229  0.9999  -4.8864   0.0000   0.2450
   9.500   1.0703   0.01104   0.00593  -0.0024  0.0208  1.0000  -5.2968   0.0000   0.2420
  10.000   1.1134   0.01161   0.00649  -0.0000  0.0190  1.0000  -5.7275   0.0000   0.2391
  10.500   1.1586   0.01213   0.00704   0.0019  0.0178  1.0000  -6.1953   0.0000   0.2368
  11.000   1.2039   0.01281   0.00774   0.0037  0.0164  1.0000  -6.6754   0.0000   0.2347
  11.500   1.2513   0.01342   0.00837   0.0050  0.0154  1.0000  -7.1837   0.0000   0.2331
  12.000   1.2965   0.01426   0.00923   0.0065  0.0142  1.0000  -7.6906   0.0000   0.2313
  12.500   1.3431   0.01494   0.00997   0.0077  0.0137  1.0000  -8.2274   0.0000   0.2298
  13.000   1.3876   0.01577   0.01083   0.0092  0.0129  1.0000  -8.7868   0.0000   0.2281
  13.500   1.4285   0.01685   0.01196   0.0111  0.0121  1.0000  -9.3329   0.0000   0.2262
  14.000   1.4703   0.01772   0.01290   0.0128  0.0117  1.0000  -9.9064   0.0000   0.2244
  14.500   1.5090   0.01874   0.01397   0.0149  0.0112  1.0000  -10.4735   0.0000   0.2223
  15.000   1.5401   0.01996   0.01525   0.0181  0.0107  1.0000  -11.0022   0.0000   0.2196
  15.500   1.5610   0.02157   0.01697   0.0224  0.0102  1.0000  -11.4629   0.0000   0.2161
  16.000   1.5855   0.02310   0.01861   0.0256  0.0100  1.0000  -11.9629   0.0000   0.2134
  16.500   1.6060   0.02507   0.02068   0.0284  0.0097  1.0000  -12.4382   0.0000   0.2108
  17.000   1.6224   0.02760   0.02333   0.0307  0.0095  1.0000  -12.8856   0.0000   0.2085
  17.500   1.6338   0.03093   0.02678   0.0321  0.0092  1.0000  -13.3035   0.0000   0.2067
  18.000   1.6381   0.03541   0.03141   0.0324  0.0090  1.0000  -13.6646   0.0000   0.2053
  18.500   1.6313   0.04180   0.03798   0.0311  0.0088  1.0000  -13.9121   0.0000   0.2048
  19.000   1.6075   0.05109   0.04750   0.0275  0.0086  1.0000  -13.9802   0.0000   0.2054
  19.500   1.5684   0.06334   0.06002   0.0218  0.0085  1.0000  -13.8708   0.0000   0.2072
  20.000   1.5113   0.07909   0.07605   0.0138  0.0085  1.0000  -13.5405   0.0000   0.2106
  20.500   1.4308   0.09948   0.09676   0.0031  0.0085  1.0000  -12.8937   0.0000   0.2162
  21.000   1.3491   0.12119   0.11877  -0.0093  0.0087  1.0000  -12.1295   0.0000   0.2240
  21.500   1.2699   0.14387   0.14174  -0.0238  0.0088  1.0000  -11.2395   0.0000   0.2348
  22.000   1.2092   0.16432   0.16242  -0.0383  0.0087  1.0000  -10.4315   0.0000   0.2467
  22.500   1.1720   0.18077   0.17902  -0.0507  0.0085  1.0000  -9.8483   0.0000   0.2574
  23.000   1.1560   0.19294   0.19130  -0.0602  0.0084  1.0000  -9.5460   0.0000   0.2652
  23.500   1.1460   0.20398   0.20244  -0.0690  0.0083  1.0000  -9.3007   0.0000   0.2724
  24.000   1.1383   0.21471   0.21327  -0.0778  0.0080  1.0000  -9.0452   0.0000   0.2795
  24.500   1.1328   0.22510   0.22373  -0.0865  0.0077  1.0000  -8.7812   0.0000   0.2865
  25.000   1.1300   0.23503   0.23373  -0.0948  0.0074  1.0000  -8.5275   0.0000   0.2932
  25.500   1.1308   0.24406   0.24281  -0.1026  0.0070  1.0000  -8.3197   0.0000   0.2990


