xflr5 v6.33

 Calculated polar for: NACA 0012 v1

 1 1 Reynolds number fixed          Mach number fixed         

 xtrf =   1.000 (top)        1.000 (bottom)
 Mach =   0.000     Re =     1.500 e 6     Ncrit =   9.000

  alpha     CL        CD       CDp       Cm    Top Xtr Bot Xtr   Cpmin    Chinge    XCp    
 ------- -------- --------- --------- -------- ------- ------- -------- --------- ---------
 -23.000  -1.1094   0.20311   0.20134   0.0684  1.0000  0.0101  -8.5343   0.0000   0.2749
 -22.500  -1.1308   0.18890   0.18696   0.0574  1.0000  0.0103  -9.0462   0.0000   0.2647
 -22.000  -1.1371   0.17909   0.17709   0.0498  1.0000  0.0107  -9.1733   0.0000   0.2588
 -21.500  -1.1502   0.16778   0.16568   0.0414  1.0000  0.0109  -9.3737   0.0000   0.2520
 -21.000  -1.1686   0.15554   0.15331   0.0327  1.0000  0.0111  -9.6076   0.0000   0.2450
 -20.500  -1.1949   0.14199   0.13962   0.0236  1.0000  0.0112  -9.8961   0.0000   0.2378
 -20.000  -1.2324   0.12672   0.12417   0.0140  1.0000  0.0113  -10.2629   0.0000   0.2304
 -19.500  -1.2852   0.10923   0.10646   0.0039  1.0000  0.0113  -10.7354   0.0000   0.2232
 -19.000  -1.3509   0.09033   0.08728  -0.0061  1.0000  0.0113  -11.2657   0.0000   0.2167
 -18.500  -1.4122   0.07296   0.06962  -0.0151  1.0000  0.0113  -11.6796   0.0000   0.2119
 -18.000  -1.4553   0.05921   0.05559  -0.0220  1.0000  0.0113  -11.8616   0.0000   0.2087
 -17.500  -1.4793   0.04891   0.04504  -0.0268  1.0000  0.0115  -11.8379   0.0000   0.2070
 -17.000  -1.4889   0.04128   0.03718  -0.0298  1.0000  0.0117  -11.6700   0.0000   0.2064
 -16.500  -1.4882   0.03565   0.03136  -0.0310  1.0000  0.0119  -11.4005   0.0000   0.2067
 -16.000  -1.4783   0.03163   0.02715  -0.0307  1.0000  0.0121  -11.0490   0.0000   0.2079
 -15.500  -1.4779   0.02741   0.02276  -0.0287  1.0000  0.0126  -10.7699   0.0000   0.2103
 -15.000  -1.4622   0.02493   0.02016  -0.0260  1.0000  0.0130  -10.3635   0.0000   0.2130
 -14.500  -1.4405   0.02310   0.01821  -0.0228  1.0000  0.0135  -9.9196   0.0000   0.2159
 -14.000  -1.4155   0.02164   0.01662  -0.0192  1.0000  0.0140  -9.4615   0.0000   0.2190
 -13.500  -1.3889   0.02012   0.01498  -0.0155  1.0000  0.0146  -9.0073   0.0000   0.2222
 -13.000  -1.3534   0.01884   0.01363  -0.0131  1.0000  0.0154  -8.5029   0.0000   0.2246
 -12.500  -1.3128   0.01783   0.01253  -0.0112  1.0000  0.0162  -7.9809   0.0000   0.2265
 -12.000  -1.2724   0.01670   0.01133  -0.0093  1.0000  0.0172  -7.4968   0.0000   0.2285
 -11.500  -1.2286   0.01581   0.01039  -0.0077  1.0000  0.0183  -7.0043   0.0000   0.2303
 -11.000  -1.1847   0.01490   0.00941  -0.0061  1.0000  0.0195  -6.5301   0.0000   0.2322
 -10.500  -1.1394   0.01414   0.00861  -0.0045  1.0000  0.0210  -6.0576   0.0000   0.2340
 -10.000  -1.0952   0.01336   0.00781  -0.0027  1.0000  0.0228  -5.6052   0.0000   0.2362
  -9.500  -1.0513   0.01271   0.00712  -0.0006  1.0000  0.0247  -5.1826   0.0000   0.2388
  -9.000  -1.0077   0.01213   0.00651   0.0016  1.0000  0.0270  -4.7787   0.0000   0.2416
  -8.500  -0.9654   0.01155   0.00593   0.0041  1.0000  0.0300  -4.3922   0.0000   0.2448
  -8.000  -0.9237   0.01100   0.00538   0.0068  1.0000  0.0336  -4.0252   0.0000   0.2485
  -7.500  -0.8664   0.01043   0.00485   0.0061  0.9986  0.0390  -3.6297   0.0000   0.2487
  -7.000  -0.7993   0.00988   0.00434   0.0034  0.9963  0.0467  -3.2173   0.0000   0.2464
  -6.500  -0.7323   0.00932   0.00385   0.0007  0.9935  0.0579  -2.8424   0.0000   0.2435
  -6.000  -0.6652   0.00877   0.00340  -0.0020  0.9902  0.0740  -2.4892   0.0000   0.2400
  -5.500  -0.5989   0.00822   0.00298  -0.0045  0.9858  0.0971  -2.1664   0.0000   0.2358
  -5.000  -0.5384   0.00769   0.00261  -0.0056  0.9768  0.1277  -1.8861   0.0000   0.2333
  -4.500  -0.4834   0.00720   0.00227  -0.0054  0.9626  0.1656  -1.6407   0.0000   0.2328
  -4.000  -0.4313   0.00675   0.00198  -0.0044  0.9429  0.2098  -1.4231   0.0000   0.2339
  -3.500  -0.3791   0.00635   0.00172  -0.0035  0.9184  0.2585  -1.2274   0.0000   0.2352
  -3.000  -0.3262   0.00601   0.00150  -0.0027  0.8889  0.3100  -1.0521   0.0000   0.2363
  -2.500  -0.2727   0.00575   0.00132  -0.0021  0.8539  0.3627  -0.8978   0.0000   0.2373
  -2.000  -0.2186   0.00555   0.00117  -0.0015  0.8140  0.4155  -0.7643   0.0000   0.2380
  -1.500  -0.1643   0.00541   0.00106  -0.0011  0.7698  0.4683  -0.6514   0.0000   0.2387
  -1.000  -0.1097   0.00531   0.00099  -0.0007  0.7226  0.5204  -0.5573   0.0000   0.2392
  -0.500  -0.0549   0.00525   0.00094  -0.0003  0.6735  0.5722  -0.4791   0.0000   0.2395
   0.000  -0.0000   0.00524   0.00093  -0.0000  0.6233  0.6233  -0.4135   0.0000   0.4160
   0.500   0.0549   0.00525   0.00094   0.0003  0.5722  0.6735  -0.4791   0.0000   0.2395
   1.000   0.1097   0.00531   0.00099   0.0007  0.5204  0.7227  -0.5573   0.0000   0.2392
   1.500   0.1643   0.00541   0.00106   0.0011  0.4683  0.7698  -0.6514   0.0000   0.2387
   2.000   0.2187   0.00555   0.00117   0.0016  0.4155  0.8140  -0.7643   0.0000   0.2380
   2.500   0.2727   0.00575   0.00132   0.0021  0.3627  0.8539  -0.8978   0.0000   0.2373
   3.000   0.3262   0.00601   0.00150   0.0028  0.3100  0.8889  -1.0521   0.0000   0.2363
   3.500   0.3791   0.00635   0.00172   0.0036  0.2585  0.9184  -1.2274   0.0000   0.2352
   4.000   0.4313   0.00675   0.00198   0.0045  0.2098  0.9429  -1.4231   0.0000   0.2339
   4.500   0.4834   0.00720   0.00227   0.0054  0.1656  0.9626  -1.6407   0.0000   0.2328
   5.000   0.5384   0.00769   0.00261   0.0057  0.1277  0.9768  -1.8861   0.0000   0.2333
   5.500   0.5989   0.00822   0.00298   0.0046  0.0971  0.9858  -2.1665   0.0000   0.2358
   6.000   0.6652   0.00877   0.00340   0.0021  0.0740  0.9902  -2.4893   0.0000   0.2400
   6.500   0.7324   0.00932   0.00385  -0.0005  0.0579  0.9935  -2.8425   0.0000   0.2435
   7.000   0.7993   0.00988   0.00434  -0.0032  0.0467  0.9963  -3.2174   0.0000   0.2464
   7.500   0.8664   0.01043   0.00485  -0.0059  0.0390  0.9986  -3.6299   0.0000   0.2487
   8.000   0.9236   0.01099   0.00538  -0.0065  0.0336  1.0000  -4.0249   0.0000   0.2485
   8.500   0.9653   0.01155   0.00593  -0.0038  0.0300  1.0000  -4.3919   0.0000   0.2448
   9.000   1.0076   0.01213   0.00651  -0.0012  0.0270  1.0000  -4.7784   0.0000   0.2415
   9.500   1.0512   0.01271   0.00712   0.0010  0.0247  1.0000  -5.1825   0.0000   0.2387
  10.000   1.0952   0.01336   0.00781   0.0031  0.0228  1.0000  -5.6052   0.0000   0.2362
  10.500   1.1394   0.01414   0.00861   0.0050  0.0210  1.0000  -6.0578   0.0000   0.2340
  11.000   1.1848   0.01490   0.00941   0.0066  0.0195  1.0000  -6.5305   0.0000   0.2322
  11.500   1.2287   0.01581   0.01039   0.0083  0.0183  1.0000  -7.0049   0.0000   0.2303
  12.000   1.2726   0.01670   0.01133   0.0099  0.0172  1.0000  -7.4975   0.0000   0.2286
  12.500   1.3130   0.01783   0.01253   0.0119  0.0162  1.0000  -7.9820   0.0000   0.2265
  13.000   1.3536   0.01884   0.01363   0.0138  0.0154  1.0000  -8.5042   0.0000   0.2246
  13.500   1.3892   0.02012   0.01498   0.0163  0.0146  1.0000  -9.0089   0.0000   0.2223
  14.000   1.4160   0.02164   0.01662   0.0199  0.0140  1.0000  -9.4643   0.0000   0.2191
  14.500   1.4411   0.02310   0.01821   0.0235  0.0135  1.0000  -9.9230   0.0000   0.2160
  15.000   1.4629   0.02493   0.02015   0.0268  0.0130  1.0000  -10.3677   0.0000   0.2131
  15.500   1.4786   0.02741   0.02275   0.0296  0.0126  1.0000  -10.7744   0.0000   0.2104
  16.000   1.4793   0.03160   0.02713   0.0316  0.0121  1.0000  -11.0558   0.0000   0.2080
  16.500   1.4893   0.03562   0.03133   0.0319  0.0119  1.0000  -11.4082   0.0000   0.2069
  17.000   1.4902   0.04123   0.03714   0.0307  0.0117  1.0000  -11.6791   0.0000   0.2065
  17.500   1.4808   0.04886   0.04499   0.0277  0.0115  1.0000  -11.8487   0.0000   0.2071
  18.000   1.4570   0.05914   0.05551   0.0228  0.0113  1.0000  -11.8749   0.0000   0.2089
  18.500   1.4141   0.07287   0.06952   0.0159  0.0112  1.0000  -11.6946   0.0000   0.2120
  19.000   1.3528   0.09025   0.08720   0.0069  0.0113  1.0000  -11.2807   0.0000   0.2169
  19.500   1.2869   0.10920   0.10642  -0.0033  0.0113  1.0000  -10.7480   0.0000   0.2233
  20.000   1.2338   0.12673   0.12418  -0.0134  0.0113  1.0000  -10.2729   0.0000   0.2306
  20.500   1.1962   0.14205   0.13968  -0.0231  0.0112  1.0000  -9.9042   0.0000   0.2379
  21.000   1.1698   0.15562   0.15340  -0.0322  0.0111  1.0000  -9.6148   0.0000   0.2451
  21.500   1.1513   0.16791   0.16581  -0.0410  0.0109  1.0000  -9.3806   0.0000   0.2521
  22.000   1.1383   0.17927   0.17726  -0.0494  0.0107  1.0000  -9.1801   0.0000   0.2589
  22.500   1.1320   0.18912   0.18718  -0.0571  0.0103  1.0000  -9.0524   0.0000   0.2649
  23.000   1.1103   0.20348   0.20172  -0.0682  0.0101  1.0000  -8.5324   0.0000   0.2751


