xflr5 v6.33

 Calculated polar for: NACA 0012 v1

 1 1 Reynolds number fixed          Mach number fixed         

 xtrf =   1.000 (top)        1.000 (bottom)
 Mach =   0.000     Re =     3.300 e 6     Ncrit =   9.000

  alpha     CL        CD       CDp       Cm    Top Xtr Bot Xtr   Cpmin    Chinge    XCp    
 ------- -------- --------- --------- -------- ------- ------- -------- --------- ---------
 -26.000  -1.1279   0.25377   0.25268   0.1113  1.0000  0.0064  -7.9870   0.0000   0.3058
 -25.500  -1.1402   0.24030   0.23909   0.1005  1.0000  0.0068  -8.6695   0.0000   0.2956
 -25.000  -1.1429   0.23053   0.22924   0.0921  1.0000  0.0069  -8.9388   0.0000   0.2890
 -24.500  -1.1432   0.22165   0.22031   0.0844  1.0000  0.0073  -9.0955   0.0000   0.2833
 -24.000  -1.1501   0.21111   0.20971   0.0756  1.0000  0.0076  -9.3608   0.0000   0.2761
 -23.500  -1.1628   0.19934   0.19785   0.0660  1.0000  0.0078  -9.6912   0.0000   0.2681
 -23.000  -1.1832   0.18614   0.18453   0.0555  1.0000  0.0080  -10.0982   0.0000   0.2592
 -22.500  -1.2216   0.16935   0.16758   0.0427  1.0000  0.0082  -10.7310   0.0000   0.2480
 -22.000  -1.2940   0.14659   0.14456   0.0262  1.0000  0.0082  -11.7425   0.0000   0.2342
 -21.500  -1.4011   0.11898   0.11660   0.0083  1.0000  0.0080  -13.0090   0.0000   0.2209
 -21.000  -1.5068   0.09370   0.09095  -0.0060  1.0000  0.0079  -14.0420   0.0000   0.2124
 -20.500  -1.5839   0.07448   0.07141  -0.0159  1.0000  0.0079  -14.6315   0.0000   0.2077
 -20.000  -1.6323   0.06052   0.05720  -0.0227  1.0000  0.0079  -14.8547   0.0000   0.2053
 -19.500  -1.6600   0.05023   0.04670  -0.0272  1.0000  0.0080  -14.8321   0.0000   0.2042
 -19.000  -1.6728   0.04249   0.03878  -0.0300  1.0000  0.0081  -14.6437   0.0000   0.2040
 -18.500  -1.6750   0.03661   0.03273  -0.0313  1.0000  0.0083  -14.3422   0.0000   0.2045
 -18.000  -1.6692   0.03213   0.02811  -0.0314  1.0000  0.0084  -13.9608   0.0000   0.2057
 -17.500  -1.6572   0.02871   0.02456  -0.0304  1.0000  0.0085  -13.5217   0.0000   0.2073
 -17.000  -1.6496   0.02538   0.02108  -0.0280  1.0000  0.0088  -13.1314   0.0000   0.2097
 -16.500  -1.6337   0.02306   0.01866  -0.0251  1.0000  0.0092  -12.6814   0.0000   0.2124
 -16.000  -1.6121   0.02134   0.01686  -0.0218  1.0000  0.0095  -12.1890   0.0000   0.2153
 -15.500  -1.5868   0.01999   0.01543  -0.0182  1.0000  0.0098  -11.6753   0.0000   0.2183
 -15.000  -1.5572   0.01890   0.01426  -0.0148  1.0000  0.0101  -11.1395   0.0000   0.2212
 -14.500  -1.5203   0.01785   0.01314  -0.0125  1.0000  0.0104  -10.5699   0.0000   0.2234
 -14.000  -1.4823   0.01672   0.01196  -0.0104  1.0000  0.0111  -10.0086   0.0000   0.2255
 -13.500  -1.4398   0.01584   0.01104  -0.0088  1.0000  0.0117  -9.4269   0.0000   0.2273
 -13.000  -1.3949   0.01508   0.01024  -0.0074  1.0000  0.0121  -8.8458   0.0000   0.2289
 -12.500  -1.3506   0.01420   0.00932  -0.0059  1.0000  0.0129  -8.2887   0.0000   0.2306
 -12.000  -1.3041   0.01348   0.00858  -0.0047  1.0000  0.0137  -7.7494   0.0000   0.2322
 -11.500  -1.2566   0.01285   0.00792  -0.0036  1.0000  0.0144  -7.2243   0.0000   0.2337
 -11.000  -1.2102   0.01217   0.00723  -0.0021  1.0000  0.0157  -6.7208   0.0000   0.2355
 -10.500  -1.1641   0.01164   0.00668  -0.0005  1.0000  0.0166  -6.2314   0.0000   0.2376
 -10.000  -1.1200   0.01107   0.00611   0.0017  1.0000  0.0182  -5.7680   0.0000   0.2402
  -9.500  -1.0771   0.01058   0.00561   0.0041  1.0000  0.0196  -5.3344   0.0000   0.2431
  -9.000  -1.0182   0.01007   0.00511   0.0031  0.9989  0.0217  -4.8580   0.0000   0.2430
  -8.500  -0.9549   0.00956   0.00462   0.0012  0.9972  0.0244  -4.3831   0.0000   0.2418
  -8.000  -0.8908   0.00906   0.00416  -0.0009  0.9957  0.0281  -3.9336   0.0000   0.2400
  -7.500  -0.8270   0.00860   0.00374  -0.0029  0.9932  0.0326  -3.5158   0.0000   0.2381
  -7.000  -0.7666   0.00816   0.00335  -0.0040  0.9877  0.0385  -3.1304   0.0000   0.2368
  -6.500  -0.7105   0.00778   0.00301  -0.0041  0.9776  0.0458  -2.7890   0.0000   0.2367
  -6.000  -0.6578   0.00742   0.00270  -0.0033  0.9628  0.0555  -2.4766   0.0000   0.2379
  -5.500  -0.6052   0.00709   0.00239  -0.0025  0.9437  0.0686  -2.1875   0.0000   0.2391
  -5.000  -0.5518   0.00677   0.00211  -0.0019  0.9200  0.0864  -1.9201   0.0000   0.2402
  -4.500  -0.4980   0.00647   0.00184  -0.0014  0.8916  0.1100  -1.6730   0.0000   0.2412
  -4.000  -0.4437   0.00619   0.00159  -0.0010  0.8580  0.1401  -1.4477   0.0000   0.2420
  -3.500  -0.3891   0.00594   0.00138  -0.0007  0.8196  0.1766  -1.2442   0.0000   0.2428
  -3.000  -0.3342   0.00571   0.00120  -0.0004  0.7778  0.2183  -1.0643   0.0000   0.2435
  -2.500  -0.2791   0.00552   0.00105  -0.0003  0.7331  0.2631  -0.9059   0.0000   0.2441
  -2.000  -0.2236   0.00537   0.00093  -0.0001  0.6871  0.3097  -0.7696   0.0000   0.2445
  -1.500  -0.1679   0.00526   0.00084  -0.0001  0.6407  0.3574  -0.6544   0.0000   0.2449
  -1.000  -0.1121   0.00518   0.00077  -0.0000  0.5939  0.4050  -0.5586   0.0000   0.2451
  -0.500  -0.0561   0.00513   0.00074  -0.0000  0.5469  0.4525  -0.4795   0.0000   0.2453
   0.000  -0.0000   0.00511   0.00073  -0.0000  0.4998  0.4998  -0.4130   0.0000   0.3706
   0.500   0.0561   0.00513   0.00074   0.0000  0.4525  0.5469  -0.4795   0.0000   0.2453
   1.000   0.1121   0.00518   0.00077   0.0000  0.4050  0.5939  -0.5586   0.0000   0.2451
   1.500   0.1679   0.00526   0.00084   0.0001  0.3574  0.6407  -0.6544   0.0000   0.2449
   2.000   0.2236   0.00537   0.00093   0.0002  0.3097  0.6871  -0.7696   0.0000   0.2445
   2.500   0.2791   0.00552   0.00105   0.0003  0.2631  0.7331  -0.9059   0.0000   0.2441
   3.000   0.3342   0.00571   0.00120   0.0005  0.2183  0.7778  -1.0644   0.0000   0.2435
   3.500   0.3891   0.00594   0.00138   0.0008  0.1766  0.8196  -1.2442   0.0000   0.2428
   4.000   0.4437   0.00619   0.00159   0.0011  0.1401  0.8580  -1.4477   0.0000   0.2421
   4.500   0.4980   0.00647   0.00184   0.0015  0.1100  0.8916  -1.6731   0.0000   0.2412
   5.000   0.5519   0.00677   0.00211   0.0020  0.0864  0.9200  -1.9202   0.0000   0.2402
   5.500   0.6053   0.00709   0.00239   0.0027  0.0686  0.9437  -2.1876   0.0000   0.2392
   6.000   0.6579   0.00743   0.00270   0.0035  0.0555  0.9628  -2.4767   0.0000   0.2379
   6.500   0.7106   0.00778   0.00301   0.0043  0.0458  0.9776  -2.7891   0.0000   0.2368
   7.000   0.7666   0.00816   0.00335   0.0042  0.0385  0.9877  -3.1305   0.0000   0.2368
   7.500   0.8271   0.00860   0.00374   0.0031  0.0326  0.9932  -3.5160   0.0000   0.2381
   8.000   0.8908   0.00906   0.00416   0.0012  0.0281  0.9957  -3.9337   0.0000   0.2400
   8.500   0.9550   0.00956   0.00462  -0.0008  0.0244  0.9972  -4.3833   0.0000   0.2418
   9.000   1.0182   0.01007   0.00511  -0.0027  0.0217  0.9989  -4.8582   0.0000   0.2430
   9.500   1.0770   0.01058   0.00561  -0.0036  0.0196  1.0000  -5.3340   0.0000   0.2431
  10.000   1.1200   0.01107   0.00611  -0.0012  0.0182  1.0000  -5.7677   0.0000   0.2401
  10.500   1.1640   0.01164   0.00668   0.0010  0.0166  1.0000  -6.2312   0.0000   0.2376
  11.000   1.2102   0.01217   0.00723   0.0027  0.0157  1.0000  -6.7209   0.0000   0.2356
  11.500   1.2567   0.01285   0.00792   0.0042  0.0144  1.0000  -7.2246   0.0000   0.2337
  12.000   1.3042   0.01348   0.00858   0.0054  0.0137  1.0000  -7.7500   0.0000   0.2322
  12.500   1.3507   0.01420   0.00932   0.0066  0.0129  1.0000  -8.2894   0.0000   0.2306
  13.000   1.3951   0.01508   0.01024   0.0082  0.0121  1.0000  -8.8469   0.0000   0.2289
  13.500   1.4400   0.01584   0.01104   0.0095  0.0117  1.0000  -9.4282   0.0000   0.2273
  14.000   1.4825   0.01672   0.01196   0.0112  0.0111  1.0000  -10.0102   0.0000   0.2255
  14.500   1.5206   0.01785   0.01314   0.0134  0.0104  1.0000  -10.5717   0.0000   0.2234
  15.000   1.5576   0.01890   0.01426   0.0157  0.0101  1.0000  -11.1421   0.0000   0.2212
  15.500   1.5874   0.01999   0.01543   0.0191  0.0098  1.0000  -11.6790   0.0000   0.2183
  16.000   1.6127   0.02134   0.01685   0.0227  0.0095  1.0000  -12.1934   0.0000   0.2154
  16.500   1.6344   0.02305   0.01866   0.0261  0.0092  1.0000  -12.6866   0.0000   0.2125
  17.000   1.6504   0.02537   0.02108   0.0291  0.0088  1.0000  -13.1373   0.0000   0.2098
  17.500   1.6583   0.02869   0.02454   0.0314  0.0085  1.0000  -13.5300   0.0000   0.2074
  18.000   1.6704   0.03210   0.02807   0.0324  0.0084  1.0000  -13.9704   0.0000   0.2058
  18.500   1.6764   0.03657   0.03269   0.0324  0.0083  1.0000  -14.3537   0.0000   0.2047
  19.000   1.6745   0.04243   0.03871   0.0311  0.0081  1.0000  -14.6572   0.0000   0.2041
  19.500   1.6619   0.05015   0.04661   0.0283  0.0080  1.0000  -14.8482   0.0000   0.2043
  20.000   1.6345   0.06041   0.05709   0.0238  0.0079  1.0000  -14.8735   0.0000   0.2054
  20.500   1.5864   0.07433   0.07126   0.0170  0.0079  1.0000  -14.6535   0.0000   0.2078
  21.000   1.5095   0.09352   0.09077   0.0070  0.0079  1.0000  -14.0670   0.0000   0.2125
  21.500   1.4035   0.11886   0.11648  -0.0074  0.0080  1.0000  -13.0315   0.0000   0.2210
  22.000   1.2957   0.14663   0.14460  -0.0255  0.0081  1.0000  -11.7570   0.0000   0.2343
  22.500   1.2230   0.16948   0.16771  -0.0422  0.0082  1.0000  -10.7405   0.0000   0.2482
  23.000   1.1844   0.18635   0.18475  -0.0551  0.0080  1.0000  -10.1054   0.0000   0.2593
  23.500   1.1640   0.19960   0.19811  -0.0657  0.0078  1.0000  -9.6972   0.0000   0.2683
  24.000   1.1514   0.21141   0.21001  -0.0753  0.0076  1.0000  -9.3668   0.0000   0.2763
  24.500   1.1444   0.22203   0.22070  -0.0841  0.0073  1.0000  -9.1007   0.0000   0.2835
  25.000   1.1443   0.23093   0.22963  -0.0919  0.0069  1.0000  -8.9470   0.0000   0.2891
  25.500   1.1416   0.24085   0.23964  -0.1003  0.0068  1.0000  -8.6746   0.0000   0.2958
  26.000   1.1292   0.25447   0.25338  -0.1113  0.0064  1.0000  -7.9885   0.0000   0.3060


