xflr5 v6.33

 Calculated polar for: NACA 0012-64

 1 1 Reynolds number fixed          Mach number fixed         

 xtrf =   1.000 (top)        1.000 (bottom)
 Mach =   0.000     Re =     0.500 e 6     Ncrit =   9.000

  alpha     CL        CD       CDp       Cm    Top Xtr Bot Xtr   Cpmin    Chinge    XCp    
 ------- -------- --------- --------- -------- ------- ------- -------- --------- ---------
 -28.500  -0.6212   0.29350   0.29146   0.0564  1.0000  0.0085  -1.1002   0.0000   0.3142
 -28.000  -0.6154   0.28835   0.28630   0.0537  1.0000  0.0090  -1.0865   0.0000   0.3116
 -27.500  -0.6097   0.28271   0.28063   0.0509  1.0000  0.0097  -1.1087   0.0000   0.3086
 -26.500  -0.9753   0.31016   0.30766   0.1061  1.0000  0.0099  -2.1294   0.0000   0.3210
 -26.000  -0.9606   0.30409   0.30159   0.1009  1.0000  0.0101  -2.2009   0.0000   0.3184
 -25.500  -0.9455   0.29965   0.29713   0.0967  1.0000  0.0104  -2.0832   0.0000   0.3169
 -25.000  -0.9299   0.29459   0.29206   0.0920  1.0000  0.0109  -2.0291   0.0000   0.3148
 -24.500  -0.9140   0.28842   0.28588   0.0870  1.0000  0.0119  -2.0674   0.0000   0.3121
 -19.500  -0.7573   0.22614   0.22354   0.0418  1.0000  0.0194  -2.0727   0.0000   0.2816
 -19.000  -0.7521   0.21480   0.21223   0.0337  1.0000  0.0210  -2.4696   0.0000   0.2717
 -18.500  -0.7312   0.21051   0.20792   0.0323  1.0000  0.0215  -2.2199   0.0000   0.2720
 -18.000  -0.7151   0.20478   0.20219   0.0289  1.0000  0.0227  -2.1288   0.0000   0.2692
 -17.000  -0.5203   0.16789   0.16551  -0.0057  1.0000  0.0292  -2.0471   0.0000   0.2231
 -16.500  -0.5031   0.16553   0.16312  -0.0055  1.0000  0.0300  -1.8126   0.0000   0.2240
 -16.000  -0.4985   0.16182   0.15940  -0.0070  1.0000  0.0319  -1.7644   0.0000   0.2212
 -15.500  -1.1266   0.05641   0.05252  -0.0503  1.0000  0.0219  -8.5395   0.0000   0.1853
 -15.000  -1.1355   0.05026   0.04614  -0.0515  1.0000  0.0225  -8.3702   0.0000   0.1858
 -14.500  -1.1441   0.04488   0.04049  -0.0507  1.0000  0.0232  -8.1970   0.0000   0.1879
 -14.000  -1.1548   0.04008   0.03527  -0.0480  1.0000  0.0242  -8.0430   0.0000   0.1917
 -13.500  -1.1614   0.03584   0.03063  -0.0436  1.0000  0.0252  -7.8537   0.0000   0.1967
 -13.000  -1.1454   0.03373   0.02847  -0.0401  1.0000  0.0262  -7.4585   0.0000   0.2001
 -12.500  -1.1317   0.03179   0.02633  -0.0354  1.0000  0.0274  -7.0996   0.0000   0.2046
 -12.000  -1.1220   0.02996   0.02417  -0.0290  1.0000  0.0287  -6.7852   0.0000   0.2108
 -11.500  -1.1016   0.02739   0.02141  -0.0244  1.0000  0.0301  -6.4203   0.0000   0.2151
 -11.000  -1.0779   0.02621   0.02014  -0.0196  1.0000  0.0316  -6.0091   0.0000   0.2198
 -10.500  -1.0542   0.02496   0.01868  -0.0144  1.0000  0.0332  -5.6258   0.0000   0.2250
 -10.000  -1.0290   0.02311   0.01660  -0.0095  1.0000  0.0346  -5.2853   0.0000   0.2301
  -9.500  -1.0018   0.02168   0.01516  -0.0048  1.0000  0.0362  -4.9312   0.0000   0.2351
  -9.000  -0.9745   0.02069   0.01407   0.0001  1.0000  0.0379  -4.5934   0.0000   0.2406
  -8.500  -0.9454   0.01973   0.01295   0.0048  1.0000  0.0394  -4.2750   0.0000   0.2461
  -8.000  -0.9174   0.01816   0.01130   0.0095  1.0000  0.0410  -3.9789   0.0000   0.2519
  -7.000  -0.8092   0.01613   0.00916   0.0084  0.9952  0.0455  -3.2528   0.0000   0.2529
  -6.500  -0.7493   0.01487   0.00787   0.0066  0.9904  0.0482  -2.9393   0.0000   0.2518
  -6.000  -0.6825   0.01409   0.00706   0.0036  0.9872  0.0523  -2.6277   0.0000   0.2486
  -5.500  -0.6212   0.01322   0.00621   0.0018  0.9812  0.0585  -2.3808   0.0000   0.2465
  -5.000  -0.5555   0.01241   0.00548  -0.0009  0.9771  0.0753  -2.1320   0.0000   0.2423
  -4.500  -0.4932   0.01153   0.00485  -0.0030  0.9713  0.1204  -1.8874   0.0000   0.2382
  -3.500  -0.3707   0.00925   0.00375  -0.0071  0.9604  0.3768  -1.4304   0.0000   0.2255
  -3.000  -0.3233   0.00799   0.00333  -0.0059  0.9514  0.5795  -1.2407   0.0000   0.2268
  -2.500  -0.2707   0.00736   0.00314  -0.0050  0.9430  0.6980  -1.0556   0.0000   0.2268
  -2.000  -0.2141   0.00704   0.00302  -0.0046  0.9351  0.7627  -0.8751   0.0000   0.2236
  -1.500  -0.1606   0.00689   0.00294  -0.0037  0.9241  0.7990  -0.7068   0.0000   0.2225
  -1.000  -0.1069   0.00680   0.00291  -0.0026  0.9127  0.8320  -0.5475   0.0000   0.2208
  -0.500  -0.0533   0.00676   0.00292  -0.0015  0.9005  0.8600  -0.4244   0.0000   0.2173
   0.000   0.0000   0.00676   0.00294  -0.0000  0.8848  0.8848  -0.3361   0.0000   0.3267
   0.500   0.0533   0.00676   0.00292   0.0015  0.8600  0.9005  -0.4244   0.0000   0.2173
   1.000   0.1069   0.00680   0.00291   0.0026  0.8320  0.9127  -0.5475   0.0000   0.2208
   1.500   0.1606   0.00689   0.00294   0.0037  0.7990  0.9241  -0.7068   0.0000   0.2225
   2.000   0.2141   0.00704   0.00302   0.0046  0.7627  0.9351  -0.8751   0.0000   0.2236
   2.500   0.2707   0.00736   0.00314   0.0050  0.6980  0.9430  -1.0556   0.0000   0.2268
   3.000   0.3233   0.00799   0.00333   0.0059  0.5795  0.9514  -1.2407   0.0000   0.2268
   3.500   0.3707   0.00925   0.00374   0.0071  0.3769  0.9604  -1.4304   0.0000   0.2255
   4.000   0.4291   0.01061   0.00433   0.0055  0.2053  0.9666  -1.6455   0.0000   0.2316
   4.500   0.4932   0.01153   0.00484   0.0030  0.1204  0.9713  -1.8874   0.0000   0.2382
   5.000   0.5555   0.01240   0.00548   0.0009  0.0753  0.9771  -2.1318   0.0000   0.2423
   5.500   0.6213   0.01322   0.00621  -0.0018  0.0585  0.9812  -2.3809   0.0000   0.2466
   6.000   0.6826   0.01408   0.00705  -0.0036  0.0523  0.9872  -2.6279   0.0000   0.2486
   6.500   0.7494   0.01487   0.00787  -0.0066  0.0482  0.9905  -2.9395   0.0000   0.2518
   7.000   0.8093   0.01613   0.00916  -0.0084  0.0455  0.9952  -3.2531   0.0000   0.2529
   7.500   0.8738   0.01710   0.01022  -0.0110  0.0430  0.9986  -3.6277   0.0000   0.2547
   8.000   0.9173   0.01815   0.01130  -0.0095  0.0410  1.0000  -3.9784   0.0000   0.2519
   8.500   0.9453   0.01972   0.01295  -0.0048  0.0394  1.0000  -4.2746   0.0000   0.2461
   9.000   0.9744   0.02069   0.01407  -0.0001  0.0379  1.0000  -4.5930   0.0000   0.2405
   9.500   1.0018   0.02168   0.01516   0.0049  0.0362  1.0000  -4.9308   0.0000   0.2350
  10.000   1.0289   0.02311   0.01660   0.0095  0.0346  1.0000  -5.2851   0.0000   0.2301
  10.500   1.0542   0.02495   0.01868   0.0144  0.0332  1.0000  -5.6258   0.0000   0.2250
  11.000   1.0779   0.02621   0.02014   0.0196  0.0316  1.0000  -6.0095   0.0000   0.2198
  11.500   1.1018   0.02739   0.02141   0.0244  0.0301  1.0000  -6.4213   0.0000   0.2152
  12.000   1.1223   0.02996   0.02417   0.0289  0.0287  1.0000  -6.7868   0.0000   0.2108
  12.500   1.1322   0.03179   0.02634   0.0353  0.0274  1.0000  -7.1024   0.0000   0.2047
  13.000   1.1461   0.03373   0.02846   0.0400  0.0262  1.0000  -7.4624   0.0000   0.2002
  13.500   1.1622   0.03584   0.03063   0.0434  0.0252  1.0000  -7.8584   0.0000   0.1968
  14.000   1.1556   0.04009   0.03528   0.0478  0.0242  1.0000  -8.0470   0.0000   0.1919
  14.500   1.1451   0.04488   0.04049   0.0506  0.0232  1.0000  -8.2029   0.0000   0.1881
  15.000   1.1369   0.05023   0.04611   0.0513  0.0225  1.0000  -8.3791   0.0000   0.1860
  15.500   1.1286   0.05632   0.05243   0.0501  0.0219  1.0000  -8.5536   0.0000   0.1856
  16.000   1.1201   0.06329   0.05955   0.0474  0.0214  1.0000  -8.7165   0.0000   0.1864
  16.500   1.0899   0.07468   0.07120   0.0415  0.0211  1.0000  -8.6256   0.0000   0.1893
  18.000   0.7165   0.20513   0.20254  -0.0292  0.0226  1.0000  -2.1311   0.0000   0.2695
  18.500   0.7327   0.21087   0.20829  -0.0326  0.0215  1.0000  -2.2250   0.0000   0.2723
  19.000   0.7537   0.21519   0.21262  -0.0340  0.0210  1.0000  -2.4784   0.0000   0.2719
  19.500   0.7588   0.22667   0.22407  -0.0421  0.0194  1.0000  -2.0746   0.0000   0.2819
  20.000   0.7752   0.23250   0.22991  -0.0460  0.0182  1.0000  -2.1381   0.0000   0.2848
  20.500   0.7932   0.23728   0.23470  -0.0488  0.0178  1.0000  -2.3057   0.0000   0.2859
  21.000   0.8048   0.24659   0.24400  -0.0552  0.0170  1.0000  -2.0535   0.0000   0.2924
  21.500   0.8210   0.25289   0.25032  -0.0596  0.0155  1.0000  -2.0688   0.0000   0.2956
  22.000   0.8379   0.25789   0.25532  -0.0634  0.0149  1.0000  -2.1938   0.0000   0.2975
  22.500   0.8553   0.26336   0.26080  -0.0663  0.0147  1.0000  -2.3421   0.0000   0.2982
  23.000   0.8685   0.27224   0.26968  -0.0736  0.0134  1.0000  -2.0127   0.0000   0.3048
  23.500   0.8847   0.27775   0.27519  -0.0780  0.0127  1.0000  -2.0593   0.0000   0.3072
  24.000   0.9010   0.28235   0.27982  -0.0818  0.0123  1.0000  -2.2150   0.0000   0.3085
  24.500   0.9161   0.28999   0.28745  -0.0876  0.0119  1.0000  -2.0612   0.0000   0.3125
  25.000   0.9321   0.29620   0.29367  -0.0926  0.0109  1.0000  -2.0322   0.0000   0.3152
  25.500   0.9477   0.30138   0.29886  -0.0972  0.0104  1.0000  -2.0880   0.0000   0.3172
  26.000   0.9628   0.30595   0.30345  -0.1015  0.0101  1.0000  -2.2080   0.0000   0.3187
  26.500   0.9776   0.31240   0.30990  -0.1069  0.0099  1.0000  -2.1139   0.0000   0.3215
  27.000   0.9934   0.31890   0.31641  -0.1123  0.0090  1.0000  -2.0305   0.0000   0.3242
  27.500   1.0082   0.32398   0.32151  -0.1173  0.0085  1.0000  -2.0774   0.0000   0.3261
  28.000   1.0224   0.32852   0.32607  -0.1221  0.0083  1.0000  -2.1702   0.0000   0.3277
  33.000   1.1544   0.37878   0.37648  -0.1755  0.0053  1.0000  -2.1833   0.0000   0.3452
  33.500   1.1646   0.38237   0.38010  -0.1807  0.0052  1.0000  -2.2935   0.0000   0.3464
  34.000   1.1762   0.38747   0.38521  -0.1865  0.0051  1.0000  -2.2416   0.0000   0.3481
  34.500   1.1883   0.39282   0.39057  -0.1922  0.0049  1.0000  -2.1580   0.0000   0.3497
  35.000   1.1989   0.39719   0.39496  -0.1978  0.0046  1.0000  -2.1534   0.0000   0.3510
  35.500   1.2088   0.40121   0.39900  -0.2034  0.0043  1.0000  -2.1727   0.0000   0.3523
  36.000   1.2180   0.40485   0.40267  -0.2091  0.0041  1.0000  -2.2178   0.0000   0.3536
  36.500   1.2261   0.40804   0.40588  -0.2146  0.0040  1.0000  -2.2987   0.0000   0.3547
  37.000   1.2351   0.41223   0.41009  -0.2204  0.0039  1.0000  -2.2879   0.0000   0.3560
  37.500   1.2450   0.41714   0.41502  -0.2262  0.0038  1.0000  -2.2098   0.0000   0.3573
  38.000   1.2536   0.42119   0.41909  -0.2320  0.0036  1.0000  -2.1924   0.0000   0.3585
  38.500   1.2613   0.42484   0.42276  -0.2377  0.0033  1.0000  -2.2049   0.0000   0.3596
  39.000   1.2684   0.42821   0.42616  -0.2435  0.0031  1.0000  -2.2488   0.0000   0.3607
  39.500   1.2746   0.43127   0.42924  -0.2493  0.0030  1.0000  -2.3094   0.0000   0.3618
  40.000   1.2797   0.43386   0.43185  -0.2550  0.0029  1.0000  -2.4021   0.0000   0.3627


