xflr5 v6.33

 Calculated polar for: NACA 0012-64

 1 1 Reynolds number fixed          Mach number fixed         

 xtrf =   1.000 (top)        1.000 (bottom)
 Mach =   0.000     Re =     2.700 e 6     Ncrit =   9.000

  alpha     CL        CD       CDp       Cm    Top Xtr Bot Xtr   Cpmin    Chinge    XCp    
 ------- -------- --------- --------- -------- ------- ------- -------- --------- ---------
 -25.500  -0.9502   0.29819   0.29711   0.0978  1.0000  0.0032  -2.5917   0.0000   0.3171
 -25.000  -0.9347   0.29298   0.29189   0.0930  1.0000  0.0034  -2.5074   0.0000   0.3149
 -24.000  -0.9802   0.23770   0.23650   0.0665  1.0000  0.0063  -7.3097   0.0000   0.2800
 -23.500  -0.9835   0.22639   0.22513   0.0585  1.0000  0.0068  -7.6593   0.0000   0.2724
 -23.000  -0.9885   0.21501   0.21372   0.0504  1.0000  0.0074  -7.9687   0.0000   0.2647
 -22.500  -1.0114   0.19889   0.19749   0.0395  1.0000  0.0079  -8.6546   0.0000   0.2534
 -22.000  -1.0504   0.17993   0.17839   0.0268  1.0000  0.0081  -9.5150   0.0000   0.2405
 -21.500  -1.3994   0.10173   0.09928  -0.0205  1.0000  0.0071  -14.9141   0.0000   0.2007
 -21.000  -1.5045   0.07639   0.07351  -0.0344  1.0000  0.0069  -16.0022   0.0000   0.1941
 -20.500  -1.5556   0.06172   0.05854  -0.0418  1.0000  0.0070  -16.2886   0.0000   0.1917
 -20.000  -1.5842   0.05164   0.04822  -0.0456  1.0000  0.0072  -16.2558   0.0000   0.1913
 -19.500  -1.5990   0.04430   0.04069  -0.0471  1.0000  0.0074  -16.0397   0.0000   0.1920
 -19.000  -1.6042   0.03876   0.03498  -0.0470  1.0000  0.0076  -15.7037   0.0000   0.1935
 -18.500  -1.6014   0.03448   0.03055  -0.0460  1.0000  0.0079  -15.2856   0.0000   0.1953
 -18.000  -1.5915   0.03115   0.02708  -0.0443  1.0000  0.0081  -14.8063   0.0000   0.1974
 -17.500  -1.5839   0.02788   0.02366  -0.0417  1.0000  0.0087  -14.3559   0.0000   0.2000
 -17.000  -1.5696   0.02532   0.02099  -0.0388  1.0000  0.0092  -13.8434   0.0000   0.2027
 -16.500  -1.5495   0.02333   0.01889  -0.0358  1.0000  0.0097  -13.2838   0.0000   0.2054
 -16.000  -1.5260   0.02165   0.01710  -0.0327  1.0000  0.0103  -12.7055   0.0000   0.2080
 -15.500  -1.5022   0.02003   0.01541  -0.0293  1.0000  0.0113  -12.1566   0.0000   0.2109
 -15.000  -1.4733   0.01879   0.01410  -0.0262  1.0000  0.0121  -11.5741   0.0000   0.2136
 -14.500  -1.4438   0.01763   0.01289  -0.0228  1.0000  0.0134  -10.9987   0.0000   0.2165
 -14.000  -1.4114   0.01675   0.01196  -0.0195  1.0000  0.0145  -10.4111   0.0000   0.2193
 -13.500  -1.3823   0.01596   0.01112  -0.0153  1.0000  0.0156  -9.8592   0.0000   0.2230
 -13.000  -1.3523   0.01533   0.01047  -0.0109  1.0000  0.0168  -9.3090   0.0000   0.2267
 -12.500  -1.3250   0.01485   0.00995  -0.0058  1.0000  0.0175  -8.7878   0.0000   0.2312
 -12.000  -1.2842   0.01416   0.00923  -0.0036  0.9993  0.0187  -8.2027   0.0000   0.2336
 -11.500  -1.2266   0.01359   0.00867  -0.0049  0.9979  0.0199  -7.5325   0.0000   0.2332
 -11.000  -1.1672   0.01312   0.00819  -0.0064  0.9965  0.0208  -6.8757   0.0000   0.2323
 -10.500  -1.1091   0.01239   0.00743  -0.0078  0.9954  0.0220  -6.2590   0.0000   0.2315
 -10.000  -1.0513   0.01183   0.00687  -0.0090  0.9933  0.0230  -5.6744   0.0000   0.2306
  -9.500  -0.9916   0.01133   0.00635  -0.0105  0.9913  0.0239  -5.1473   0.0000   0.2292
  -9.000  -0.9309   0.01091   0.00594  -0.0121  0.9890  0.0246  -4.6516   0.0000   0.2274
  -8.500  -0.8768   0.01026   0.00524  -0.0123  0.9841  0.0259  -4.2114   0.0000   0.2269
  -8.000  -0.8245   0.00979   0.00477  -0.0119  0.9781  0.0272  -3.8075   0.0000   0.2270
  -7.500  -0.7750   0.00940   0.00437  -0.0108  0.9699  0.0283  -3.4475   0.0000   0.2280
  -7.000  -0.7246   0.00905   0.00400  -0.0099  0.9610  0.0289  -3.1324   0.0000   0.2288
  -6.500  -0.6739   0.00863   0.00353  -0.0090  0.9520  0.0303  -2.8631   0.0000   0.2295
  -6.000  -0.6221   0.00826   0.00316  -0.0083  0.9427  0.0321  -2.6016   0.0000   0.2300
  -5.500  -0.5693   0.00796   0.00284  -0.0078  0.9326  0.0337  -2.3432   0.0000   0.2300
  -4.500  -0.4635   0.00729   0.00221  -0.0068  0.9100  0.0495  -1.8558   0.0000   0.2296
  -4.000  -0.4107   0.00693   0.00195  -0.0063  0.8975  0.0744  -1.6273   0.0000   0.2291
  -3.500  -0.3571   0.00662   0.00172  -0.0060  0.8846  0.0977  -1.4160   0.0000   0.2280
  -3.000  -0.3043   0.00625   0.00150  -0.0055  0.8709  0.1421  -1.2141   0.0000   0.2268
  -2.500  -0.2513   0.00589   0.00131  -0.0051  0.8564  0.1977  -1.0301   0.0000   0.2248
  -2.000  -0.1995   0.00545   0.00112  -0.0044  0.8392  0.2794  -0.8583   0.0000   0.2229
  -1.000  -0.1033   0.00429   0.00075  -0.0017  0.7822  0.5600  -0.5463   0.0000   0.2291
  -0.500  -0.0517   0.00407   0.00068  -0.0009  0.7471  0.6368  -0.4251   0.0000   0.2289
   0.000   0.0000   0.00393   0.00066  -0.0000  0.7090  0.7090  -0.3385   0.0000   0.4773
   0.500   0.0517   0.00407   0.00068   0.0009  0.6368  0.7471  -0.4251   0.0000   0.2289
   1.000   0.1033   0.00429   0.00075   0.0017  0.5600  0.7821  -0.5463   0.0000   0.2291
   1.500   0.1531   0.00468   0.00088   0.0028  0.4534  0.8140  -0.7020   0.0000   0.2270
   2.000   0.1995   0.00545   0.00112   0.0044  0.2794  0.8392  -0.8583   0.0000   0.2230
   2.500   0.2513   0.00589   0.00131   0.0051  0.1977  0.8564  -1.0301   0.0000   0.2248
   3.000   0.3043   0.00625   0.00150   0.0055  0.1421  0.8709  -1.2141   0.0000   0.2268
   4.000   0.4108   0.00693   0.00195   0.0063  0.0744  0.8975  -1.6273   0.0000   0.2292
   4.500   0.4636   0.00729   0.00221   0.0068  0.0495  0.9100  -1.8559   0.0000   0.2296
   5.000   0.5164   0.00765   0.00252   0.0073  0.0375  0.9220  -2.0955   0.0000   0.2299
   5.500   0.5694   0.00796   0.00284   0.0078  0.0337  0.9326  -2.3433   0.0000   0.2300
   6.000   0.6222   0.00826   0.00316   0.0083  0.0321  0.9427  -2.6018   0.0000   0.2300
   6.500   0.6740   0.00863   0.00354   0.0090  0.0303  0.9520  -2.8634   0.0000   0.2296
   7.000   0.7247   0.00906   0.00400   0.0099  0.0289  0.9609  -3.1327   0.0000   0.2288
   7.500   0.7751   0.00940   0.00437   0.0108  0.0283  0.9698  -3.4479   0.0000   0.2280
   8.000   0.8247   0.00979   0.00477   0.0119  0.0272  0.9781  -3.8080   0.0000   0.2270
   8.500   0.8770   0.01026   0.00524   0.0123  0.0259  0.9841  -4.2119   0.0000   0.2269
   9.000   0.9310   0.01091   0.00594   0.0121  0.0246  0.9890  -4.6522   0.0000   0.2274
   9.500   0.9918   0.01133   0.00635   0.0105  0.0239  0.9913  -5.1479   0.0000   0.2293
  10.000   1.0515   0.01183   0.00686   0.0090  0.0230  0.9933  -5.6751   0.0000   0.2307
  10.500   1.1093   0.01239   0.00743   0.0078  0.0219  0.9954  -6.2600   0.0000   0.2315
  11.000   1.1674   0.01312   0.00818   0.0064  0.0208  0.9966  -6.8769   0.0000   0.2324
  11.500   1.2269   0.01359   0.00867   0.0048  0.0199  0.9979  -7.5339   0.0000   0.2332
  12.000   1.2845   0.01416   0.00923   0.0035  0.0187  0.9993  -8.2043   0.0000   0.2336
  12.500   1.3248   0.01484   0.00994   0.0058  0.0175  1.0000  -8.7870   0.0000   0.2312
  13.000   1.3523   0.01532   0.01047   0.0109  0.0168  1.0000  -9.3093   0.0000   0.2267
  13.500   1.3827   0.01596   0.01112   0.0152  0.0156  1.0000  -9.8616   0.0000   0.2230
  14.000   1.4120   0.01675   0.01196   0.0194  0.0145  1.0000  -10.4151   0.0000   0.2194
  14.500   1.4445   0.01763   0.01289   0.0227  0.0134  1.0000  -11.0035   0.0000   0.2166
  15.000   1.4741   0.01879   0.01410   0.0260  0.0121  1.0000  -11.5798   0.0000   0.2137
  15.500   1.5032   0.02002   0.01540   0.0291  0.0113  1.0000  -12.1631   0.0000   0.2110
  16.000   1.5270   0.02165   0.01710   0.0325  0.0103  1.0000  -12.7127   0.0000   0.2082
  16.500   1.5507   0.02332   0.01888   0.0356  0.0097  1.0000  -13.2931   0.0000   0.2055
  17.000   1.5710   0.02531   0.02098   0.0385  0.0092  1.0000  -13.8538   0.0000   0.2029
  17.500   1.5853   0.02786   0.02365   0.0414  0.0086  1.0000  -14.3674   0.0000   0.2002
  18.000   1.5933   0.03111   0.02704   0.0440  0.0081  1.0000  -14.8212   0.0000   0.1976
  18.500   1.6034   0.03444   0.03051   0.0457  0.0079  1.0000  -15.3024   0.0000   0.1955
  19.000   1.6064   0.03871   0.03493   0.0467  0.0076  1.0000  -15.7227   0.0000   0.1937
  19.500   1.6013   0.04423   0.04062   0.0468  0.0074  1.0000  -16.0604   0.0000   0.1922
  20.000   1.5866   0.05156   0.04814   0.0453  0.0071  1.0000  -16.2785   0.0000   0.1915
  20.500   1.5582   0.06163   0.05845   0.0414  0.0070  1.0000  -16.3127   0.0000   0.1920
  21.000   1.5072   0.07631   0.07342   0.0341  0.0069  1.0000  -16.0273   0.0000   0.1943
  21.500   1.4023   0.10164   0.09918   0.0201  0.0071  1.0000  -14.9418   0.0000   0.2010
  22.000   1.0519   0.18024   0.17870  -0.0273  0.0081  1.0000  -9.5213   0.0000   0.2409
  22.500   1.0128   0.19935   0.19796  -0.0400  0.0079  1.0000  -8.6568   0.0000   0.2538
  23.000   0.9900   0.21557   0.21428  -0.0509  0.0074  1.0000  -7.9720   0.0000   0.2651
  23.500   0.9853   0.22699   0.22573  -0.0589  0.0068  1.0000  -7.6689   0.0000   0.2727
  24.000   0.9818   0.23854   0.23734  -0.0670  0.0063  1.0000  -7.3104   0.0000   0.2804
  24.500   0.9784   0.25075   0.24961  -0.0754  0.0057  1.0000  -6.8481   0.0000   0.2886
  25.000   0.9898   0.25727   0.25613  -0.0808  0.0053  1.0000  -6.9166   0.0000   0.2919


