xflr5 v6.33

 Calculated polar for: NACA 0012 v1

 1 1 Reynolds number fixed          Mach number fixed         

 xtrf =   1.000 (top)        1.000 (bottom)
 Mach =   0.000     Re =     4.300 e 6     Ncrit =   9.000

  alpha     CL        CD       CDp       Cm    Top Xtr Bot Xtr   Cpmin    Chinge    XCp    
 ------- -------- --------- --------- -------- ------- ------- -------- --------- ---------
 -27.000  -1.1556   0.26303   0.26202   0.1213  1.0000  0.0054  -8.4089   0.0000   0.3090
 -26.500  -1.1503   0.25561   0.25457   0.1144  1.0000  0.0058  -8.5207   0.0000   0.3046
 -26.000  -1.1509   0.24628   0.24519   0.1062  1.0000  0.0062  -8.7988   0.0000   0.2984
 -25.500  -1.1510   0.23731   0.23617   0.0983  1.0000  0.0064  -9.0091   0.0000   0.2925
 -25.000  -1.1531   0.22789   0.22668   0.0901  1.0000  0.0066  -9.2291   0.0000   0.2862
 -24.500  -1.1578   0.21788   0.21659   0.0816  1.0000  0.0068  -9.4660   0.0000   0.2796
 -24.000  -1.1663   0.20709   0.20571   0.0726  1.0000  0.0069  -9.7347   0.0000   0.2723
 -23.500  -1.2005   0.19043   0.18891   0.0592  1.0000  0.0072  -10.4586   0.0000   0.2601
 -23.000  -1.2668   0.16775   0.16600   0.0416  1.0000  0.0073  -11.5772   0.0000   0.2443
 -22.500  -1.3575   0.14194   0.13988   0.0228  1.0000  0.0072  -12.8257   0.0000   0.2292
 -22.000  -1.4511   0.11753   0.11514   0.0071  1.0000  0.0070  -13.8770   0.0000   0.2185
 -21.500  -1.5389   0.09560   0.09291  -0.0053  1.0000  0.0069  -14.6925   0.0000   0.2116
 -21.000  -1.6146   0.07670   0.07371  -0.0150  1.0000  0.0069  -15.2721   0.0000   0.2071
 -20.500  -1.6691   0.06190   0.05865  -0.0222  1.0000  0.0069  -15.5638   0.0000   0.2046
 -20.000  -1.7057   0.05045   0.04696  -0.0273  1.0000  0.0070  -15.6334   0.0000   0.2034
 -19.500  -1.7258   0.04192   0.03824  -0.0302  1.0000  0.0072  -15.5116   0.0000   0.2032
 -19.000  -1.7324   0.03568   0.03184  -0.0315  1.0000  0.0075  -15.2411   0.0000   0.2039
 -18.500  -1.7289   0.03110   0.02713  -0.0313  1.0000  0.0077  -14.8659   0.0000   0.2052
 -18.000  -1.7187   0.02764   0.02356  -0.0301  1.0000  0.0079  -14.4261   0.0000   0.2070
 -17.500  -1.7034   0.02499   0.02081  -0.0280  1.0000  0.0081  -13.9424   0.0000   0.2092
 -17.000  -1.6839   0.02293   0.01866  -0.0254  1.0000  0.0083  -13.4293   0.0000   0.2117
 -16.500  -1.6609   0.02130   0.01694  -0.0223  1.0000  0.0084  -12.9116   0.0000   0.2143
 -16.000  -1.6362   0.01991   0.01548  -0.0189  1.0000  0.0086  -12.3888   0.0000   0.2172
 -15.500  -1.6126   0.01856   0.01405  -0.0146  1.0000  0.0091  -11.8860   0.0000   0.2206
 -15.000  -1.5770   0.01748   0.01292  -0.0122  1.0000  0.0095  -11.3060   0.0000   0.2229
 -14.500  -1.5369   0.01655   0.01195  -0.0103  1.0000  0.0099  -10.7081   0.0000   0.2249
 -14.000  -1.4940   0.01574   0.01109  -0.0088  1.0000  0.0102  -10.1050   0.0000   0.2266
 -13.500  -1.4510   0.01484   0.01016  -0.0072  1.0000  0.0108  -9.5204   0.0000   0.2284
 -13.000  -1.4059   0.01405   0.00935  -0.0059  1.0000  0.0115  -8.9349   0.0000   0.2300
 -12.500  -1.3588   0.01339   0.00866  -0.0047  1.0000  0.0120  -8.3529   0.0000   0.2315
 -12.000  -1.3118   0.01270   0.00794  -0.0036  1.0000  0.0128  -7.8092   0.0000   0.2331
 -11.500  -1.2643   0.01206   0.00730  -0.0024  1.0000  0.0137  -7.2806   0.0000   0.2347
 -11.000  -1.2169   0.01154   0.00676  -0.0010  1.0000  0.0144  -6.7668   0.0000   0.2365
 -10.500  -1.1721   0.01096   0.00619   0.0009  1.0000  0.0158  -6.2823   0.0000   0.2388
 -10.000  -1.1281   0.01050   0.00572   0.0031  1.0000  0.0168  -5.8153   0.0000   0.2415
  -9.500  -1.0710   0.00997   0.00521   0.0025  0.9991  0.0185  -5.3179   0.0000   0.2417
  -9.000  -1.0089   0.00946   0.00472   0.0008  0.9975  0.0207  -4.8288   0.0000   0.2407
  -8.500  -0.9457   0.00899   0.00427  -0.0011  0.9962  0.0232  -4.3540   0.0000   0.2394
  -8.000  -0.8833   0.00854   0.00386  -0.0028  0.9935  0.0264  -3.9122   0.0000   0.2380
  -7.500  -0.8242   0.00814   0.00349  -0.0036  0.9875  0.0303  -3.5104   0.0000   0.2372
  -7.000  -0.7697   0.00777   0.00315  -0.0033  0.9766  0.0353  -3.1429   0.0000   0.2377
  -6.500  -0.7173   0.00743   0.00283  -0.0025  0.9614  0.0417  -2.8112   0.0000   0.2390
  -6.000  -0.6643   0.00712   0.00253  -0.0018  0.9421  0.0501  -2.4956   0.0000   0.2402
  -5.500  -0.6105   0.00683   0.00225  -0.0013  0.9184  0.0611  -2.2023   0.0000   0.2412
  -5.000  -0.5561   0.00657   0.00198  -0.0009  0.8899  0.0762  -1.9309   0.0000   0.2421
  -4.500  -0.5014   0.00632   0.00174  -0.0006  0.8562  0.0964  -1.6808   0.0000   0.2428
  -4.000  -0.4465   0.00608   0.00151  -0.0004  0.8180  0.1226  -1.4533   0.0000   0.2435
  -3.500  -0.3913   0.00586   0.00131  -0.0002  0.7765  0.1549  -1.2480   0.0000   0.2442
  -3.000  -0.3360   0.00567   0.00115  -0.0000  0.7325  0.1923  -1.0670   0.0000   0.2447
  -2.500  -0.2804   0.00550   0.00100   0.0000  0.6875  0.2339  -0.9075   0.0000   0.2452
  -2.000  -0.2246   0.00535   0.00089   0.0001  0.6422  0.2779  -0.7706   0.0000   0.2456
  -1.500  -0.1686   0.00525   0.00080   0.0001  0.5965  0.3232  -0.6549   0.0000   0.2459
  -1.000  -0.1125   0.00517   0.00074   0.0001  0.5512  0.3688  -0.5588   0.0000   0.2461
  -0.500  -0.0563   0.00512   0.00071   0.0000  0.5060  0.4147  -0.4794   0.0000   0.2462
   0.000   0.0000   0.00511   0.00070  -0.0000  0.4604  0.4604  -0.4129   0.0000   0.4065
   0.500   0.0563   0.00512   0.00071  -0.0000  0.4147  0.5060  -0.4794   0.0000   0.2462
   1.000   0.1125   0.00517   0.00074  -0.0001  0.3688  0.5512  -0.5588   0.0000   0.2461
   1.500   0.1686   0.00525   0.00080  -0.0001  0.3232  0.5965  -0.6549   0.0000   0.2459
   2.000   0.2246   0.00535   0.00089  -0.0001  0.2779  0.6422  -0.7706   0.0000   0.2456
   2.500   0.2804   0.00550   0.00100  -0.0000  0.2339  0.6875  -0.9075   0.0000   0.2452
   3.000   0.3360   0.00567   0.00115   0.0001  0.1923  0.7325  -1.0670   0.0000   0.2447
   3.500   0.3913   0.00586   0.00131   0.0002  0.1549  0.7765  -1.2480   0.0000   0.2442
   4.000   0.4465   0.00608   0.00151   0.0004  0.1227  0.8180  -1.4533   0.0000   0.2436
   4.500   0.5014   0.00632   0.00174   0.0007  0.0964  0.8562  -1.6808   0.0000   0.2429
   5.000   0.5562   0.00657   0.00198   0.0010  0.0762  0.8899  -1.9310   0.0000   0.2421
   5.500   0.6105   0.00683   0.00225   0.0014  0.0611  0.9184  -2.2024   0.0000   0.2412
   6.000   0.6644   0.00712   0.00253   0.0020  0.0501  0.9421  -2.4957   0.0000   0.2402
   6.500   0.7174   0.00743   0.00283   0.0027  0.0417  0.9613  -2.8113   0.0000   0.2390
   7.000   0.7697   0.00777   0.00315   0.0036  0.0353  0.9766  -3.1431   0.0000   0.2378
   7.500   0.8243   0.00814   0.00349   0.0038  0.0303  0.9875  -3.5106   0.0000   0.2372
   8.000   0.8833   0.00854   0.00386   0.0031  0.0264  0.9935  -3.9124   0.0000   0.2380
   8.500   0.9457   0.00899   0.00427   0.0014  0.0232  0.9962  -4.3542   0.0000   0.2394
   9.000   1.0090   0.00946   0.00472  -0.0004  0.0207  0.9975  -4.8291   0.0000   0.2408
   9.500   1.0711   0.00997   0.00521  -0.0021  0.0185  0.9991  -5.3182   0.0000   0.2417
  10.000   1.1280   0.01050   0.00572  -0.0026  0.0168  1.0000  -5.8148   0.0000   0.2414
  10.500   1.1720   0.01096   0.00619  -0.0004  0.0158  1.0000  -6.2820   0.0000   0.2388
  11.000   1.2169   0.01154   0.00676   0.0016  0.0144  1.0000  -6.7667   0.0000   0.2365
  11.500   1.2644   0.01206   0.00730   0.0030  0.0137  1.0000  -7.2809   0.0000   0.2347
  12.000   1.3119   0.01270   0.00794   0.0042  0.0128  1.0000  -7.8097   0.0000   0.2331
  12.500   1.3590   0.01339   0.00866   0.0054  0.0120  1.0000  -8.3536   0.0000   0.2315
  13.000   1.4061   0.01405   0.00935   0.0066  0.0115  1.0000  -8.9358   0.0000   0.2300
  13.500   1.4512   0.01484   0.01016   0.0080  0.0108  1.0000  -9.5216   0.0000   0.2284
  14.000   1.4943   0.01574   0.01109   0.0096  0.0102  1.0000  -10.1064   0.0000   0.2266
  14.500   1.5372   0.01655   0.01195   0.0112  0.0099  1.0000  -10.7098   0.0000   0.2249
  15.000   1.5773   0.01748   0.01292   0.0131  0.0095  1.0000  -11.3082   0.0000   0.2230
  15.500   1.6130   0.01857   0.01405   0.0156  0.0091  1.0000  -11.8889   0.0000   0.2207
  16.000   1.6368   0.01992   0.01548   0.0199  0.0086  1.0000  -12.3926   0.0000   0.2173
  16.500   1.6617   0.02129   0.01694   0.0234  0.0084  1.0000  -12.9167   0.0000   0.2144
  17.000   1.6848   0.02292   0.01865   0.0265  0.0083  1.0000  -13.4352   0.0000   0.2117
  17.500   1.7043   0.02498   0.02080   0.0291  0.0081  1.0000  -13.9496   0.0000   0.2093
  18.000   1.7198   0.02762   0.02354   0.0312  0.0079  1.0000  -14.4345   0.0000   0.2071
  18.500   1.7302   0.03107   0.02710   0.0325  0.0077  1.0000  -14.8757   0.0000   0.2053
  19.000   1.7338   0.03564   0.03180   0.0327  0.0075  1.0000  -15.2524   0.0000   0.2040
  19.500   1.7274   0.04188   0.03819   0.0315  0.0072  1.0000  -15.5241   0.0000   0.2034
  20.000   1.7074   0.05040   0.04691   0.0285  0.0070  1.0000  -15.6470   0.0000   0.2035
  20.500   1.6709   0.06185   0.05860   0.0234  0.0069  1.0000  -15.5780   0.0000   0.2047
  21.000   1.6173   0.07652   0.07353   0.0162  0.0069  1.0000  -15.2971   0.0000   0.2072
  21.500   1.5405   0.09558   0.09288   0.0063  0.0069  1.0000  -14.7053   0.0000   0.2117
  22.000   1.4525   0.11752   0.11514  -0.0062  0.0070  1.0000  -13.8873   0.0000   0.2187
  22.500   1.3586   0.14201   0.13995  -0.0221  0.0072  1.0000  -12.8321   0.0000   0.2294
  23.000   1.2678   0.16789   0.16614  -0.0410  0.0072  1.0000  -11.5820   0.0000   0.2445
  23.500   1.2014   0.19071   0.18920  -0.0588  0.0072  1.0000  -10.4593   0.0000   0.2603
  24.000   1.1677   0.20741   0.20604  -0.0722  0.0069  1.0000  -9.7427   0.0000   0.2725
  24.500   1.1592   0.21824   0.21696  -0.0813  0.0068  1.0000  -9.4735   0.0000   0.2797
  25.000   1.1544   0.22831   0.22710  -0.0898  0.0066  1.0000  -9.2350   0.0000   0.2864
  25.500   1.1524   0.23781   0.23667  -0.0980  0.0064  1.0000  -9.0161   0.0000   0.2926
  26.000   1.1523   0.24686   0.24578  -0.1060  0.0062  1.0000  -8.8050   0.0000   0.2985
  26.500   1.1518   0.25627   0.25523  -0.1142  0.0058  1.0000  -8.5277   0.0000   0.3047
  27.000   1.1571   0.26389   0.26288  -0.1212  0.0054  1.0000  -8.4143   0.0000   0.3092


