xflr5 v6.33

 Calculated polar for: NACA 0012 v1

 1 1 Reynolds number fixed          Mach number fixed         

 xtrf =   1.000 (top)        1.000 (bottom)
 Mach =   0.000     Re =     4.200 e 6     Ncrit =   9.000

  alpha     CL        CD       CDp       Cm    Top Xtr Bot Xtr   Cpmin    Chinge    XCp    
 ------- -------- --------- --------- -------- ------- ------- -------- --------- ---------
 -27.000  -1.1544   0.26341   0.26239   0.1216  1.0000  0.0055  -8.3612   0.0000   0.3094
 -26.500  -1.1492   0.25598   0.25493   0.1146  1.0000  0.0059  -8.4788   0.0000   0.3049
 -26.000  -1.1498   0.24664   0.24554   0.1064  1.0000  0.0062  -8.7607   0.0000   0.2987
 -25.500  -1.1499   0.23761   0.23647   0.0985  1.0000  0.0065  -8.9762   0.0000   0.2928
 -25.000  -1.1516   0.22827   0.22706   0.0904  1.0000  0.0067  -9.1900   0.0000   0.2866
 -24.500  -1.1561   0.21834   0.21705   0.0819  1.0000  0.0068  -9.4223   0.0000   0.2800
 -24.000  -1.1647   0.20754   0.20616   0.0729  1.0000  0.0069  -9.6973   0.0000   0.2727
 -23.500  -1.1973   0.19116   0.18965   0.0597  1.0000  0.0072  -10.3965   0.0000   0.2607
 -23.000  -1.2609   0.16895   0.16721   0.0425  1.0000  0.0073  -11.4807   0.0000   0.2452
 -22.500  -1.3511   0.14314   0.14109   0.0237  1.0000  0.0073  -12.7350   0.0000   0.2299
 -22.000  -1.4465   0.11830   0.11592   0.0075  1.0000  0.0071  -13.8196   0.0000   0.2188
 -21.500  -1.5358   0.09608   0.09339  -0.0050  1.0000  0.0070  -14.6569   0.0000   0.2117
 -21.000  -1.6109   0.07726   0.07427  -0.0148  1.0000  0.0070  -15.2316   0.0000   0.2073
 -20.500  -1.6664   0.06229   0.05903  -0.0221  1.0000  0.0070  -15.5353   0.0000   0.2047
 -20.000  -1.7027   0.05085   0.04737  -0.0271  1.0000  0.0071  -15.6019   0.0000   0.2034
 -19.500  -1.7223   0.04234   0.03866  -0.0301  1.0000  0.0073  -15.4763   0.0000   0.2033
 -19.000  -1.7285   0.03610   0.03227  -0.0314  1.0000  0.0075  -15.2025   0.0000   0.2039
 -18.500  -1.7251   0.03146   0.02750  -0.0314  1.0000  0.0077  -14.8291   0.0000   0.2052
 -18.000  -1.7150   0.02795   0.02388  -0.0302  1.0000  0.0079  -14.3916   0.0000   0.2069
 -17.500  -1.6999   0.02525   0.02108  -0.0283  1.0000  0.0081  -13.9107   0.0000   0.2090
 -17.000  -1.6807   0.02315   0.01888  -0.0257  1.0000  0.0083  -13.4007   0.0000   0.2115
 -16.500  -1.6578   0.02149   0.01713  -0.0227  1.0000  0.0084  -12.8850   0.0000   0.2141
 -16.000  -1.6348   0.01999   0.01555  -0.0190  1.0000  0.0087  -12.3779   0.0000   0.2171
 -15.500  -1.6108   0.01866   0.01415  -0.0149  1.0000  0.0092  -11.8716   0.0000   0.2205
 -15.000  -1.5755   0.01759   0.01302  -0.0124  1.0000  0.0096  -11.2935   0.0000   0.2228
 -14.500  -1.5356   0.01666   0.01205  -0.0105  1.0000  0.0099  -10.6967   0.0000   0.2247
 -14.000  -1.4928   0.01585   0.01119  -0.0089  1.0000  0.0102  -10.0945   0.0000   0.2265
 -13.500  -1.4502   0.01492   0.01022  -0.0073  1.0000  0.0109  -9.5137   0.0000   0.2283
 -13.000  -1.4050   0.01413   0.00942  -0.0060  1.0000  0.0116  -8.9280   0.0000   0.2299
 -12.500  -1.3580   0.01347   0.00873  -0.0049  1.0000  0.0120  -8.3463   0.0000   0.2314
 -12.000  -1.3112   0.01276   0.00799  -0.0036  1.0000  0.0129  -7.8048   0.0000   0.2330
 -11.500  -1.2637   0.01213   0.00735  -0.0025  1.0000  0.0138  -7.2759   0.0000   0.2346
 -11.000  -1.2164   0.01158   0.00679  -0.0011  1.0000  0.0145  -6.7636   0.0000   0.2364
 -10.500  -1.1714   0.01102   0.00623   0.0008  1.0000  0.0159  -6.2779   0.0000   0.2387
 -10.000  -1.1274   0.01054   0.00575   0.0030  1.0000  0.0169  -5.8116   0.0000   0.2414
  -9.500  -1.0717   0.01003   0.00524   0.0027  0.9992  0.0186  -5.3203   0.0000   0.2418
  -9.000  -1.0097   0.00951   0.00475   0.0010  0.9976  0.0208  -4.8312   0.0000   0.2409
  -8.500  -0.9464   0.00904   0.00430  -0.0009  0.9962  0.0234  -4.3564   0.0000   0.2396
  -8.000  -0.8838   0.00859   0.00388  -0.0026  0.9938  0.0265  -3.9136   0.0000   0.2381
  -7.500  -0.8240   0.00818   0.00351  -0.0036  0.9884  0.0305  -3.5093   0.0000   0.2372
  -7.000  -0.7691   0.00780   0.00316  -0.0035  0.9779  0.0356  -3.1408   0.0000   0.2376
  -6.500  -0.7167   0.00746   0.00284  -0.0027  0.9631  0.0420  -2.8093   0.0000   0.2388
  -6.000  -0.6638   0.00715   0.00255  -0.0019  0.9442  0.0505  -2.4941   0.0000   0.2400
  -5.500  -0.6101   0.00685   0.00226  -0.0014  0.9210  0.0617  -2.2011   0.0000   0.2411
  -5.000  -0.5558   0.00659   0.00199  -0.0010  0.8928  0.0769  -1.9300   0.0000   0.2419
  -4.500  -0.5011   0.00633   0.00175  -0.0007  0.8597  0.0973  -1.6801   0.0000   0.2427
  -4.000  -0.4463   0.00609   0.00152  -0.0004  0.8219  0.1242  -1.4528   0.0000   0.2434
  -3.500  -0.3911   0.00587   0.00132  -0.0002  0.7804  0.1565  -1.2476   0.0000   0.2440
  -3.000  -0.3358   0.00567   0.00115  -0.0001  0.7367  0.1946  -1.0667   0.0000   0.2446
  -2.500  -0.2803   0.00550   0.00101   0.0000  0.6917  0.2363  -0.9074   0.0000   0.2451
  -2.000  -0.2245   0.00536   0.00089   0.0001  0.6460  0.2807  -0.7705   0.0000   0.2455
  -1.500  -0.1686   0.00524   0.00080   0.0001  0.6005  0.3260  -0.6549   0.0000   0.2458
  -1.000  -0.1125   0.00517   0.00074   0.0001  0.5550  0.3721  -0.5588   0.0000   0.2460
  -0.500  -0.0563   0.00512   0.00071   0.0000  0.5094  0.4181  -0.4794   0.0000   0.2462
   0.000  -0.0000   0.00510   0.00070  -0.0000  0.4639  0.4639  -0.4129   0.0000   0.4033
   0.500   0.0563   0.00512   0.00071  -0.0000  0.4182  0.5094  -0.4794   0.0000   0.2462
   1.000   0.1125   0.00517   0.00074  -0.0001  0.3721  0.5550  -0.5588   0.0000   0.2460
   1.500   0.1686   0.00524   0.00080  -0.0001  0.3260  0.6005  -0.6549   0.0000   0.2458
   2.000   0.2245   0.00536   0.00089  -0.0000  0.2807  0.6460  -0.7705   0.0000   0.2455
   2.500   0.2803   0.00550   0.00101   0.0000  0.2363  0.6917  -0.9074   0.0000   0.2451
   3.000   0.3358   0.00567   0.00115   0.0001  0.1946  0.7367  -1.0667   0.0000   0.2446
   3.500   0.3911   0.00587   0.00132   0.0003  0.1565  0.7804  -1.2476   0.0000   0.2441
   4.000   0.4463   0.00609   0.00152   0.0005  0.1242  0.8219  -1.4528   0.0000   0.2434
   4.500   0.5012   0.00633   0.00175   0.0008  0.0973  0.8596  -1.6802   0.0000   0.2427
   5.000   0.5558   0.00659   0.00199   0.0011  0.0769  0.8928  -1.9301   0.0000   0.2420
   5.500   0.6101   0.00685   0.00226   0.0015  0.0617  0.9210  -2.2012   0.0000   0.2411
   6.000   0.6639   0.00715   0.00255   0.0021  0.0505  0.9442  -2.4943   0.0000   0.2401
   6.500   0.7168   0.00746   0.00284   0.0028  0.0420  0.9631  -2.8094   0.0000   0.2388
   7.000   0.7691   0.00780   0.00316   0.0037  0.0356  0.9779  -3.1410   0.0000   0.2376
   7.500   0.8240   0.00818   0.00351   0.0039  0.0305  0.9884  -3.5095   0.0000   0.2372
   8.000   0.8838   0.00859   0.00388   0.0029  0.0265  0.9938  -3.9137   0.0000   0.2381
   8.500   0.9465   0.00904   0.00430   0.0012  0.0233  0.9963  -4.3566   0.0000   0.2396
   9.000   1.0097   0.00951   0.00475  -0.0006  0.0208  0.9977  -4.8314   0.0000   0.2409
   9.500   1.0718   0.01003   0.00524  -0.0023  0.0186  0.9992  -5.3205   0.0000   0.2419
  10.000   1.1273   0.01054   0.00574  -0.0025  0.0169  1.0000  -5.8111   0.0000   0.2413
  10.500   1.1713   0.01102   0.00623  -0.0002  0.0159  1.0000  -6.2776   0.0000   0.2387
  11.000   1.2164   0.01158   0.00679   0.0017  0.0145  1.0000  -6.7636   0.0000   0.2364
  11.500   1.2637   0.01213   0.00735   0.0031  0.0138  1.0000  -7.2762   0.0000   0.2346
  12.000   1.3113   0.01276   0.00799   0.0043  0.0129  1.0000  -7.8053   0.0000   0.2330
  12.500   1.3581   0.01347   0.00873   0.0056  0.0120  1.0000  -8.3470   0.0000   0.2314
  13.000   1.4052   0.01413   0.00942   0.0067  0.0116  1.0000  -8.9289   0.0000   0.2300
  13.500   1.4504   0.01492   0.01022   0.0081  0.0109  1.0000  -9.5148   0.0000   0.2283
  14.000   1.4930   0.01585   0.01119   0.0098  0.0102  1.0000  -10.0960   0.0000   0.2265
  14.500   1.5359   0.01666   0.01205   0.0114  0.0099  1.0000  -10.6984   0.0000   0.2248
  15.000   1.5758   0.01759   0.01302   0.0133  0.0096  1.0000  -11.2957   0.0000   0.2228
  15.500   1.6113   0.01867   0.01415   0.0158  0.0091  1.0000  -11.8746   0.0000   0.2205
  16.000   1.6354   0.02000   0.01555   0.0200  0.0087  1.0000  -12.3818   0.0000   0.2172
  16.500   1.6586   0.02149   0.01713   0.0237  0.0084  1.0000  -12.8901   0.0000   0.2142
  17.000   1.6815   0.02314   0.01887   0.0267  0.0083  1.0000  -13.4067   0.0000   0.2115
  17.500   1.7008   0.02524   0.02106   0.0294  0.0081  1.0000  -13.9179   0.0000   0.2091
  18.000   1.7162   0.02793   0.02386   0.0314  0.0079  1.0000  -14.4002   0.0000   0.2070
  18.500   1.7264   0.03143   0.02747   0.0325  0.0077  1.0000  -14.8390   0.0000   0.2053
  19.000   1.7300   0.03606   0.03222   0.0326  0.0075  1.0000  -15.2140   0.0000   0.2040
  19.500   1.7239   0.04229   0.03861   0.0313  0.0073  1.0000  -15.4892   0.0000   0.2034
  20.000   1.7044   0.05079   0.04731   0.0283  0.0071  1.0000  -15.6160   0.0000   0.2036
  20.500   1.6682   0.06223   0.05898   0.0232  0.0070  1.0000  -15.5499   0.0000   0.2048
  21.000   1.6127   0.07721   0.07422   0.0159  0.0070  1.0000  -15.2466   0.0000   0.2074
  21.500   1.5375   0.09605   0.09335   0.0061  0.0070  1.0000  -14.6707   0.0000   0.2119
  22.000   1.4480   0.11830   0.11592  -0.0066  0.0071  1.0000  -13.8311   0.0000   0.2190
  22.500   1.3524   0.14320   0.14115  -0.0229  0.0073  1.0000  -12.7433   0.0000   0.2301
  23.000   1.2619   0.16913   0.16739  -0.0419  0.0073  1.0000  -11.4842   0.0000   0.2454
  23.500   1.1982   0.19144   0.18993  -0.0593  0.0072  1.0000  -10.3977   0.0000   0.2610
  24.000   1.1658   0.20789   0.20651  -0.0726  0.0069  1.0000  -9.7019   0.0000   0.2729
  24.500   1.1574   0.21869   0.21740  -0.0816  0.0068  1.0000  -9.4297   0.0000   0.2802
  25.000   1.1529   0.22870   0.22748  -0.0901  0.0067  1.0000  -9.1961   0.0000   0.2868
  25.500   1.1513   0.23812   0.23697  -0.0983  0.0065  1.0000  -8.9831   0.0000   0.2930
  26.000   1.1512   0.24726   0.24617  -0.1063  0.0062  1.0000  -8.7657   0.0000   0.2989
  26.500   1.1507   0.25663   0.25559  -0.1145  0.0059  1.0000  -8.4859   0.0000   0.3051
  27.000   1.1559   0.26429   0.26327  -0.1215  0.0054  1.0000  -8.3668   0.0000   0.3096


