xflr5 v6.33

 Calculated polar for: NACA 0012-64

 1 1 Reynolds number fixed          Mach number fixed         

 xtrf =   1.000 (top)        1.000 (bottom)
 Mach =   0.000     Re =     2.400 e 6     Ncrit =   9.000

  alpha     CL        CD       CDp       Cm    Top Xtr Bot Xtr   Cpmin    Chinge    XCp    
 ------- -------- --------- --------- -------- ------- ------- -------- --------- ---------
 -28.500  -1.0375   0.33247   0.33135   0.1282  1.0000  0.0023  -2.4235   0.0000   0.3304
 -28.000  -1.0233   0.32763   0.32650   0.1231  1.0000  0.0025  -2.3616   0.0000   0.3286
 -26.500  -0.9797   0.30954   0.30840   0.1077  1.0000  0.0031  -2.5597   0.0000   0.3217
 -26.000  -0.9648   0.30473   0.30359   0.1028  1.0000  0.0032  -2.4643   0.0000   0.3197
 -25.500  -0.9495   0.29943   0.29828   0.0980  1.0000  0.0035  -2.4111   0.0000   0.3175
 -25.000  -0.9350   0.28935   0.28820   0.0922  1.0000  0.0039  -2.8802   0.0000   0.3135
 -23.500  -0.9752   0.22907   0.22779   0.0600  1.0000  0.0070  -7.3935   0.0000   0.2747
 -23.000  -0.9824   0.21680   0.21548   0.0515  1.0000  0.0076  -7.7938   0.0000   0.2663
 -22.500  -1.0051   0.20053   0.19908   0.0405  1.0000  0.0081  -8.5017   0.0000   0.2548
 -22.000  -1.0408   0.18217   0.18062   0.0282  1.0000  0.0086  -9.3214   0.0000   0.2422
 -21.500  -1.1727   0.14427   0.14236   0.0040  1.0000  0.0084  -11.5835   0.0000   0.2190
 -21.000  -1.4602   0.08373   0.08097  -0.0304  1.0000  0.0075  -15.4208   0.0000   0.1960
 -20.500  -1.5245   0.06627   0.06318  -0.0396  1.0000  0.0074  -15.9019   0.0000   0.1924
 -20.000  -1.5573   0.05510   0.05176  -0.0445  1.0000  0.0076  -15.9360   0.0000   0.1914
 -19.500  -1.5741   0.04714   0.04359  -0.0468  1.0000  0.0078  -15.7535   0.0000   0.1917
 -19.000  -1.5800   0.04123   0.03749  -0.0473  1.0000  0.0080  -15.4352   0.0000   0.1928
 -18.000  -1.5795   0.03219   0.02811  -0.0449  1.0000  0.0087  -14.6848   0.0000   0.1968
 -17.500  -1.5711   0.02890   0.02469  -0.0426  1.0000  0.0092  -14.2272   0.0000   0.1992
 -17.000  -1.5561   0.02634   0.02200  -0.0399  1.0000  0.0096  -13.7115   0.0000   0.2018
 -16.500  -1.5354   0.02434   0.01988  -0.0372  1.0000  0.0100  -13.1504   0.0000   0.2042
 -16.000  -1.5169   0.02227   0.01771  -0.0338  1.0000  0.0110  -12.6209   0.0000   0.2072
 -15.500  -1.4920   0.02070   0.01606  -0.0306  1.0000  0.0118  -12.0632   0.0000   0.2099
 -15.000  -1.4642   0.01936   0.01464  -0.0274  1.0000  0.0128  -11.4950   0.0000   0.2126
 -14.500  -1.4340   0.01823   0.01346  -0.0243  1.0000  0.0140  -10.9150   0.0000   0.2154
 -14.000  -1.4013   0.01733   0.01249  -0.0211  1.0000  0.0149  -10.3288   0.0000   0.2181
 -13.500  -1.3713   0.01648   0.01161  -0.0172  1.0000  0.0162  -9.7729   0.0000   0.2215
 -13.000  -1.3412   0.01587   0.01096  -0.0129  1.0000  0.0172  -9.2243   0.0000   0.2252
 -12.500  -1.3133   0.01530   0.01034  -0.0080  1.0000  0.0180  -8.7046   0.0000   0.2295
 -12.000  -1.2873   0.01474   0.00977  -0.0026  0.9999  0.0191  -8.2071   0.0000   0.2343
 -11.500  -1.2294   0.01421   0.00923  -0.0039  0.9986  0.0203  -7.5342   0.0000   0.2339
 -11.000  -1.1698   0.01376   0.00875  -0.0055  0.9971  0.0209  -6.8760   0.0000   0.2331
 -10.500  -1.1128   0.01288   0.00785  -0.0068  0.9958  0.0224  -6.2678   0.0000   0.2324
 -10.000  -1.0537   0.01234   0.00730  -0.0082  0.9942  0.0234  -5.6757   0.0000   0.2314
  -9.500  -0.9946   0.01184   0.00678  -0.0096  0.9918  0.0243  -5.1503   0.0000   0.2302
  -9.000  -0.9338   0.01129   0.00621  -0.0114  0.9899  0.0251  -4.6578   0.0000   0.2282
  -8.500  -0.8747   0.01058   0.00549  -0.0128  0.9875  0.0267  -4.1974   0.0000   0.2264
  -8.000  -0.8214   0.01012   0.00502  -0.0126  0.9813  0.0278  -3.7903   0.0000   0.2261
  -7.500  -0.7694   0.00973   0.00461  -0.0121  0.9745  0.0288  -3.4234   0.0000   0.2262
  -7.000  -0.7197   0.00929   0.00413  -0.0110  0.9662  0.0296  -3.1156   0.0000   0.2271
  -6.500  -0.6701   0.00883   0.00365  -0.0099  0.9573  0.0314  -2.8492   0.0000   0.2281
  -6.000  -0.6187   0.00848   0.00328  -0.0091  0.9479  0.0330  -2.5878   0.0000   0.2286
  -5.500  -0.5661   0.00818   0.00295  -0.0085  0.9379  0.0343  -2.3316   0.0000   0.2286
  -5.000  -0.5136   0.00782   0.00261  -0.0080  0.9276  0.0390  -2.0865   0.0000   0.2285
  -4.500  -0.4614   0.00743   0.00229  -0.0073  0.9162  0.0548  -1.8498   0.0000   0.2283
  -4.000  -0.4087   0.00706   0.00202  -0.0068  0.9040  0.0789  -1.6225   0.0000   0.2278
  -3.500  -0.3554   0.00674   0.00178  -0.0064  0.8914  0.1051  -1.4122   0.0000   0.2267
  -3.000  -0.3031   0.00633   0.00155  -0.0059  0.8778  0.1557  -1.2117   0.0000   0.2256
  -2.500  -0.2505   0.00595   0.00135  -0.0054  0.8634  0.2140  -1.0285   0.0000   0.2237
  -2.000  -0.2003   0.00540   0.00113  -0.0044  0.8477  0.3190  -0.8594   0.0000   0.2231
  -1.500  -0.1541   0.00460   0.00089  -0.0028  0.8250  0.4954  -0.7033   0.0000   0.2275
  -1.000  -0.1038   0.00426   0.00077  -0.0017  0.7951  0.5922  -0.5468   0.0000   0.2294
  -0.500  -0.0519   0.00406   0.00071  -0.0009  0.7623  0.6618  -0.4252   0.0000   0.2289
   0.000  -0.0000   0.00393   0.00069   0.0000  0.7279  0.7279  -0.3384   0.0000   0.4771
   0.500   0.0519   0.00406   0.00071   0.0009  0.6618  0.7623  -0.4252   0.0000   0.2289
   1.000   0.1038   0.00426   0.00077   0.0017  0.5922  0.7951  -0.5468   0.0000   0.2294
   1.500   0.1541   0.00460   0.00090   0.0028  0.4954  0.8250  -0.7033   0.0000   0.2275
   2.000   0.2003   0.00540   0.00113   0.0044  0.3190  0.8477  -0.8595   0.0000   0.2231
   2.500   0.2505   0.00595   0.00135   0.0054  0.2140  0.8634  -1.0285   0.0000   0.2237
   3.000   0.3031   0.00633   0.00155   0.0059  0.1557  0.8778  -1.2117   0.0000   0.2256
   3.500   0.3555   0.00674   0.00178   0.0064  0.1051  0.8914  -1.4123   0.0000   0.2267
   4.000   0.4088   0.00706   0.00202   0.0068  0.0789  0.9039  -1.6226   0.0000   0.2279
   4.500   0.4614   0.00743   0.00229   0.0073  0.0548  0.9162  -1.8499   0.0000   0.2284
   5.000   0.5137   0.00782   0.00261   0.0079  0.0390  0.9276  -2.0867   0.0000   0.2285
   5.500   0.5662   0.00818   0.00295   0.0085  0.0343  0.9379  -2.3318   0.0000   0.2286
   6.000   0.6188   0.00848   0.00328   0.0091  0.0330  0.9479  -2.5880   0.0000   0.2286
   6.500   0.6702   0.00884   0.00365   0.0098  0.0314  0.9573  -2.8495   0.0000   0.2282
   7.000   0.7198   0.00929   0.00413   0.0110  0.0296  0.9662  -3.1159   0.0000   0.2272
   7.500   0.7695   0.00973   0.00461   0.0121  0.0288  0.9745  -3.4238   0.0000   0.2263
   8.000   0.8215   0.01012   0.00502   0.0126  0.0278  0.9813  -3.7907   0.0000   0.2261
   8.500   0.8749   0.01058   0.00549   0.0127  0.0267  0.9875  -4.1979   0.0000   0.2264
   9.000   0.9339   0.01129   0.00621   0.0114  0.0251  0.9899  -4.6583   0.0000   0.2282
   9.500   0.9948   0.01184   0.00678   0.0096  0.0243  0.9918  -5.1509   0.0000   0.2302
  10.000   1.0539   0.01234   0.00730   0.0082  0.0234  0.9942  -5.6763   0.0000   0.2314
  10.500   1.1130   0.01288   0.00785   0.0068  0.0224  0.9958  -6.2689   0.0000   0.2325
  11.000   1.1700   0.01375   0.00875   0.0055  0.0209  0.9972  -6.8772   0.0000   0.2332
  11.500   1.2297   0.01420   0.00922   0.0039  0.0203  0.9986  -7.5356   0.0000   0.2340
  12.000   1.2876   0.01474   0.00976   0.0025  0.0191  0.9999  -8.2086   0.0000   0.2344
  12.500   1.3133   0.01529   0.01033   0.0080  0.0180  1.0000  -8.7042   0.0000   0.2295
  13.000   1.3413   0.01587   0.01096   0.0129  0.0172  1.0000  -9.2251   0.0000   0.2252
  13.500   1.3718   0.01648   0.01161   0.0171  0.0162  1.0000  -9.7760   0.0000   0.2215
  14.000   1.4019   0.01734   0.01249   0.0210  0.0149  1.0000  -10.3327   0.0000   0.2182
  14.500   1.4347   0.01823   0.01346   0.0241  0.0140  1.0000  -10.9199   0.0000   0.2155
  15.000   1.4650   0.01936   0.01464   0.0273  0.0128  1.0000  -11.5006   0.0000   0.2128
  15.500   1.4929   0.02070   0.01606   0.0304  0.0118  1.0000  -12.0699   0.0000   0.2100
  16.000   1.5179   0.02226   0.01770   0.0336  0.0110  1.0000  -12.6284   0.0000   0.2073
  16.500   1.5367   0.02433   0.01987   0.0370  0.0100  1.0000  -13.1602   0.0000   0.2044
  17.000   1.5575   0.02632   0.02199   0.0397  0.0096  1.0000  -13.7223   0.0000   0.2019
  17.500   1.5726   0.02888   0.02467   0.0423  0.0091  1.0000  -14.2393   0.0000   0.1994
  18.000   1.5811   0.03216   0.02808   0.0446  0.0087  1.0000  -14.6982   0.0000   0.1969
  18.500   1.5797   0.03664   0.03273   0.0464  0.0081  1.0000  -15.0544   0.0000   0.1946
  19.000   1.5822   0.04116   0.03742   0.0470  0.0080  1.0000  -15.4557   0.0000   0.1930
  19.500   1.5765   0.04706   0.04351   0.0464  0.0078  1.0000  -15.7761   0.0000   0.1919
  20.000   1.5600   0.05500   0.05166   0.0442  0.0076  1.0000  -15.9607   0.0000   0.1916
  20.500   1.5274   0.06614   0.06304   0.0393  0.0074  1.0000  -15.9300   0.0000   0.1927
  21.000   1.4634   0.08356   0.08080   0.0301  0.0074  1.0000  -15.4529   0.0000   0.1963
  21.500   1.1733   0.14468   0.14277  -0.0046  0.0084  1.0000  -11.5746   0.0000   0.2195
  22.000   1.0419   0.18264   0.18109  -0.0288  0.0086  1.0000  -9.3176   0.0000   0.2427
  22.500   1.0065   0.20100   0.19956  -0.0410  0.0081  1.0000  -8.5032   0.0000   0.2552
  23.000   0.9838   0.21738   0.21606  -0.0520  0.0076  1.0000  -7.7949   0.0000   0.2667
  23.500   0.9770   0.22972   0.22845  -0.0605  0.0070  1.0000  -7.4021   0.0000   0.2751


