xflr5 v6.33

 Calculated polar for: NACA 0012 v1

 1 1 Reynolds number fixed          Mach number fixed         

 xtrf =   1.000 (top)        1.000 (bottom)
 Mach =   0.000     Re =     1.600 e 6     Ncrit =   9.000

  alpha     CL        CD       CDp       Cm    Top Xtr Bot Xtr   Cpmin    Chinge    XCp    
 ------- -------- --------- --------- -------- ------- ------- -------- --------- ---------
 -23.000  -1.1135   0.20219   0.20046   0.0677  1.0000  0.0099  -8.6300   0.0000   0.2740
 -22.500  -1.1326   0.18863   0.18673   0.0572  1.0000  0.0101  -9.0851   0.0000   0.2644
 -22.000  -1.1455   0.17717   0.17515   0.0485  1.0000  0.0104  -9.3339   0.0000   0.2572
 -21.500  -1.1575   0.16631   0.16420   0.0404  1.0000  0.0106  -9.5050   0.0000   0.2508
 -21.000  -1.1785   0.15363   0.15141   0.0314  1.0000  0.0108  -9.7652   0.0000   0.2436
 -20.500  -1.2099   0.13916   0.13678   0.0217  1.0000  0.0109  -10.1105   0.0000   0.2359
 -20.000  -1.2563   0.12237   0.11979   0.0113  1.0000  0.0110  -10.5709   0.0000   0.2280
 -19.500  -1.3205   0.10312   0.10028   0.0005  1.0000  0.0110  -11.1499   0.0000   0.2205
 -19.000  -1.3918   0.08359   0.08045  -0.0097  1.0000  0.0109  -11.7149   0.0000   0.2143
 -18.500  -1.4497   0.06714   0.06370  -0.0181  1.0000  0.0109  -12.0713   0.0000   0.2101
 -18.000  -1.4866   0.05464   0.05094  -0.0243  1.0000  0.0110  -12.1772   0.0000   0.2076
 -17.500  -1.5049   0.04546   0.04153  -0.0284  1.0000  0.0111  -12.0839   0.0000   0.2064
 -17.000  -1.5104   0.03869   0.03457  -0.0306  1.0000  0.0114  -11.8681   0.0000   0.2062
 -16.500  -1.5072   0.03365   0.02934  -0.0311  1.0000  0.0116  -11.5686   0.0000   0.2070
 -16.000  -1.4972   0.02990   0.02542  -0.0303  1.0000  0.0119  -11.2091   0.0000   0.2085
 -15.500  -1.4815   0.02710   0.02246  -0.0285  1.0000  0.0122  -10.8036   0.0000   0.2105
 -15.000  -1.4729   0.02418   0.01939  -0.0250  1.0000  0.0127  -10.4537   0.0000   0.2138
 -14.500  -1.4512   0.02242   0.01753  -0.0215  1.0000  0.0132  -10.0049   0.0000   0.2168
 -14.000  -1.4256   0.02103   0.01604  -0.0178  1.0000  0.0137  -9.5384   0.0000   0.2200
 -13.500  -1.3916   0.01990   0.01479  -0.0152  1.0000  0.0142  -9.0297   0.0000   0.2225
 -13.000  -1.3583   0.01841   0.01322  -0.0125  1.0000  0.0150  -8.5442   0.0000   0.2251
 -12.500  -1.3174   0.01740   0.01214  -0.0106  1.0000  0.0159  -8.0177   0.0000   0.2270
 -12.000  -1.2750   0.01644   0.01109  -0.0089  1.0000  0.0167  -7.5189   0.0000   0.2288
 -11.500  -1.2318   0.01548   0.01010  -0.0073  1.0000  0.0179  -7.0298   0.0000   0.2307
 -11.000  -1.1865   0.01469   0.00924  -0.0058  1.0000  0.0190  -6.5448   0.0000   0.2324
 -10.500  -1.1420   0.01386   0.00838  -0.0041  1.0000  0.0206  -6.0764   0.0000   0.2344
 -10.000  -1.0973   0.01314   0.00763  -0.0023  1.0000  0.0223  -5.6210   0.0000   0.2366
  -9.500  -1.0529   0.01255   0.00701  -0.0003  1.0000  0.0241  -5.1929   0.0000   0.2390
  -9.000  -1.0101   0.01191   0.00636   0.0021  1.0000  0.0266  -4.7924   0.0000   0.2420
  -8.500  -0.9678   0.01135   0.00580   0.0046  1.0000  0.0295  -4.4053   0.0000   0.2453
  -8.000  -0.9259   0.01084   0.00529   0.0073  1.0000  0.0329  -4.0354   0.0000   0.2489
  -7.000  -0.7950   0.00971   0.00423   0.0024  0.9959  0.0460  -3.2050   0.0000   0.2452
  -6.500  -0.7283   0.00916   0.00376  -0.0002  0.9931  0.0570  -2.8317   0.0000   0.2423
  -5.500  -0.5964   0.00809   0.00291  -0.0050  0.9848  0.0949  -2.1605   0.0000   0.2349
  -5.000  -0.5379   0.00759   0.00255  -0.0056  0.9744  0.1241  -1.8851   0.0000   0.2332
  -4.500  -0.4845   0.00712   0.00223  -0.0050  0.9584  0.1602  -1.6432   0.0000   0.2336
  -4.000  -0.4326   0.00668   0.00194  -0.0040  0.9378  0.2030  -1.4256   0.0000   0.2349
  -3.500  -0.3802   0.00630   0.00168  -0.0032  0.9121  0.2508  -1.2292   0.0000   0.2361
  -3.000  -0.3271   0.00597   0.00146  -0.0025  0.8814  0.3017  -1.0534   0.0000   0.2372
  -2.500  -0.2734   0.00571   0.00128  -0.0019  0.8453  0.3539  -0.8987   0.0000   0.2381
  -2.000  -0.2192   0.00552   0.00114  -0.0014  0.8045  0.4063  -0.7649   0.0000   0.2388
  -1.500  -0.1647   0.00538   0.00104  -0.0009  0.7598  0.4588  -0.6518   0.0000   0.2395
  -1.000  -0.1100   0.00529   0.00096  -0.0006  0.7123  0.5106  -0.5574   0.0000   0.2400
  -0.500  -0.0551   0.00524   0.00092  -0.0003  0.6631  0.5621  -0.4792   0.0000   0.2403
   0.000   0.0000   0.00522   0.00091  -0.0000  0.6130  0.6130  -0.4134   0.0000   0.4511
   0.500   0.0551   0.00524   0.00092   0.0003  0.5621  0.6631  -0.4792   0.0000   0.2403
   1.000   0.1100   0.00529   0.00096   0.0006  0.5106  0.7123  -0.5574   0.0000   0.2400
   1.500   0.1647   0.00538   0.00104   0.0010  0.4588  0.7598  -0.6518   0.0000   0.2395
   2.000   0.2192   0.00552   0.00114   0.0014  0.4063  0.8045  -0.7649   0.0000   0.2389
   2.500   0.2734   0.00571   0.00128   0.0019  0.3539  0.8453  -0.8987   0.0000   0.2381
   3.000   0.3271   0.00597   0.00146   0.0025  0.3017  0.8814  -1.0534   0.0000   0.2372
   3.500   0.3802   0.00630   0.00168   0.0032  0.2508  0.9121  -1.2292   0.0000   0.2361
   4.000   0.4326   0.00668   0.00194   0.0041  0.2030  0.9378  -1.4257   0.0000   0.2349
   4.500   0.4845   0.00712   0.00223   0.0051  0.1602  0.9584  -1.6433   0.0000   0.2336
   5.000   0.5379   0.00759   0.00255   0.0057  0.1241  0.9744  -1.8852   0.0000   0.2332
   5.500   0.5964   0.00809   0.00291   0.0051  0.0949  0.9848  -2.1606   0.0000   0.2349
   6.500   0.7283   0.00916   0.00376   0.0004  0.0570  0.9931  -2.8318   0.0000   0.2423
   7.000   0.7950   0.00971   0.00423  -0.0022  0.0460  0.9960  -3.2051   0.0000   0.2452
   7.500   0.8621   0.01025   0.00473  -0.0049  0.0384  0.9980  -3.6174   0.0000   0.2476
   8.000   0.9258   0.01084   0.00529  -0.0069  0.0329  1.0000  -4.0351   0.0000   0.2489
   8.500   0.9678   0.01135   0.00580  -0.0042  0.0295  1.0000  -4.4049   0.0000   0.2453
   9.000   1.0100   0.01191   0.00636  -0.0017  0.0266  1.0000  -4.7922   0.0000   0.2420
   9.500   1.0528   0.01255   0.00701   0.0007  0.0241  1.0000  -5.1927   0.0000   0.2390
  10.000   1.0973   0.01314   0.00763   0.0028  0.0223  1.0000  -5.6209   0.0000   0.2366
  10.500   1.1420   0.01385   0.00838   0.0046  0.0206  1.0000  -6.0766   0.0000   0.2344
  11.000   1.1866   0.01469   0.00924   0.0063  0.0190  1.0000  -6.5452   0.0000   0.2324
  11.500   1.2319   0.01548   0.01010   0.0079  0.0179  1.0000  -7.0304   0.0000   0.2307
  12.000   1.2751   0.01644   0.01110   0.0095  0.0167  1.0000  -7.5196   0.0000   0.2289
  12.500   1.3176   0.01740   0.01214   0.0113  0.0159  1.0000  -8.0187   0.0000   0.2270
  13.000   1.3585   0.01841   0.01322   0.0132  0.0150  1.0000  -8.5455   0.0000   0.2251
  13.500   1.3919   0.01990   0.01479   0.0159  0.0142  1.0000  -9.0315   0.0000   0.2226
  14.000   1.4260   0.02104   0.01604   0.0186  0.0137  1.0000  -9.5410   0.0000   0.2201
  14.500   1.4517   0.02242   0.01753   0.0223  0.0132  1.0000  -10.0082   0.0000   0.2169
  15.000   1.4735   0.02418   0.01939   0.0258  0.0127  1.0000  -10.4576   0.0000   0.2139
  15.500   1.4821   0.02711   0.02247   0.0293  0.0122  1.0000  -10.8069   0.0000   0.2106
  16.000   1.4981   0.02988   0.02540   0.0312  0.0119  1.0000  -11.2152   0.0000   0.2086
  16.500   1.5083   0.03362   0.02931   0.0320  0.0116  1.0000  -11.5759   0.0000   0.2071
  17.000   1.5117   0.03866   0.03453   0.0315  0.0114  1.0000  -11.8768   0.0000   0.2063
  17.500   1.5063   0.04540   0.04148   0.0293  0.0111  1.0000  -12.0943   0.0000   0.2065
  18.000   1.4882   0.05457   0.05087   0.0252  0.0110  1.0000  -12.1897   0.0000   0.2077
  18.500   1.4514   0.06707   0.06363   0.0190  0.0109  1.0000  -12.0851   0.0000   0.2102
  19.000   1.3937   0.08352   0.08038   0.0106  0.0109  1.0000  -11.7297   0.0000   0.2144
  19.500   1.3223   0.10307   0.10023   0.0002  0.0109  1.0000  -11.1639   0.0000   0.2206
  20.000   1.2578   0.12237   0.11979  -0.0107  0.0110  1.0000  -10.5818   0.0000   0.2282
  20.500   1.2112   0.13922   0.13684  -0.0212  0.0109  1.0000  -10.1189   0.0000   0.2361
  21.000   1.1797   0.15370   0.15148  -0.0309  0.0108  1.0000  -9.7723   0.0000   0.2437
  21.500   1.1587   0.16641   0.16431  -0.0399  0.0106  1.0000  -9.5119   0.0000   0.2510
  22.000   1.1468   0.17730   0.17528  -0.0481  0.0103  1.0000  -9.3414   0.0000   0.2573
  22.500   1.1337   0.18888   0.18698  -0.0569  0.0101  1.0000  -9.0890   0.0000   0.2646
  23.000   1.1145   0.20258   0.20085  -0.0675  0.0099  1.0000  -8.6306   0.0000   0.2742


