xflr5 v6.33

 Calculated polar for: NACA 0012 v1

 1 1 Reynolds number fixed          Mach number fixed         

 xtrf =   1.000 (top)        1.000 (bottom)
 Mach =   0.000     Re =     0.300 e 6     Ncrit =   9.000

  alpha     CL        CD       CDp       Cm    Top Xtr Bot Xtr   Cpmin    Chinge    XCp    
 ------- -------- --------- --------- -------- ------- ------- -------- --------- ---------
 -24.500  -0.9969   0.28311   0.27990   0.1142  1.0000  0.0189  -2.2116   0.0000   0.3326
 -24.000  -0.9801   0.27884   0.27560   0.1109  1.0000  0.0194  -2.0580   0.0000   0.3325
 -23.500  -0.9639   0.27380   0.27056   0.1063  1.0000  0.0204  -2.0111   0.0000   0.3307
 -23.000  -0.9493   0.26675   0.26350   0.1000  1.0000  0.0215  -2.1601   0.0000   0.3265
 -22.500  -0.9320   0.26229   0.25902   0.0966  1.0000  0.0221  -2.0363   0.0000   0.3260
 -22.000  -0.9163   0.25616   0.25289   0.0913  1.0000  0.0239  -2.0817   0.0000   0.3228
 -21.500  -0.9002   0.25040   0.24712   0.0869  1.0000  0.0245  -2.0554   0.0000   0.3207
 -21.000  -0.8832   0.24517   0.24188   0.0828  1.0000  0.0258  -1.9942   0.0000   0.3189
 -20.500  -0.8694   0.23786   0.23458   0.0769  1.0000  0.0271  -2.1136   0.0000   0.3143
 -20.000  -0.8513   0.23306   0.22976   0.0737  1.0000  0.0283  -2.0082   0.0000   0.3134
 -19.500  -0.8384   0.22558   0.22229   0.0678  1.0000  0.0302  -2.1183   0.0000   0.3084
 -19.000  -0.8200   0.22061   0.21730   0.0647  1.0000  0.0314  -2.0091   0.0000   0.3074
 -18.500  -0.8088   0.21264   0.20935   0.0586  1.0000  0.0333  -2.1321   0.0000   0.3015
 -18.000  -0.7899   0.20767   0.20436   0.0559  1.0000  0.0348  -2.0238   0.0000   0.3007
 -17.500  -0.7780   0.20013   0.19683   0.0507  1.0000  0.0369  -2.0996   0.0000   0.2957
 -16.000  -0.9020   0.12418   0.12091   0.0075  1.0000  0.0301  -5.1383   0.0000   0.2372
 -15.500  -0.8926   0.11827   0.11503   0.0047  1.0000  0.0307  -4.9774   0.0000   0.2352
 -15.000  -0.8101   0.13188   0.12869   0.0126  1.0000  0.0333  -3.8747   0.0000   0.2473
 -14.500  -0.8022   0.12544   0.12226   0.0093  1.0000  0.0343  -3.7599   0.0000   0.2441
 -14.000  -1.1571   0.04957   0.04433  -0.0374  1.0000  0.0287  -7.0410   0.0000   0.2003
 -13.500  -1.1765   0.04321   0.03745  -0.0359  1.0000  0.0293  -7.0158   0.0000   0.2032
 -13.000  -1.1866   0.03841   0.03210  -0.0317  1.0000  0.0301  -6.9170   0.0000   0.2077
 -12.500  -1.1646   0.03577   0.02943  -0.0290  1.0000  0.0314  -6.5708   0.0000   0.2104
 -12.000  -1.1541   0.03269   0.02584  -0.0242  1.0000  0.0330  -6.3485   0.0000   0.2151
 -11.500  -1.1212   0.03011   0.02322  -0.0221  1.0000  0.0346  -5.9953   0.0000   0.2170
 -11.000  -1.0903   0.02765   0.02047  -0.0193  1.0000  0.0368  -5.6771   0.0000   0.2197
 -10.500  -1.0547   0.02571   0.01835  -0.0169  1.0000  0.0395  -5.3242   0.0000   0.2220
 -10.000  -1.0169   0.02377   0.01637  -0.0147  1.0000  0.0424  -4.9643   0.0000   0.2242
  -9.500  -0.9786   0.02206   0.01457  -0.0124  1.0000  0.0461  -4.6284   0.0000   0.2266
  -9.000  -0.9397   0.02048   0.01291  -0.0100  1.0000  0.0505  -4.3010   0.0000   0.2293
  -8.500  -0.9013   0.01900   0.01143  -0.0074  1.0000  0.0559  -3.9764   0.0000   0.2323
  -8.000  -0.8626   0.01772   0.01014  -0.0046  1.0000  0.0628  -3.6692   0.0000   0.2356
  -7.500  -0.8244   0.01652   0.00895  -0.0017  1.0000  0.0718  -3.3753   0.0000   0.2395
  -7.000  -0.7861   0.01539   0.00788   0.0013  1.0000  0.0839  -3.0887   0.0000   0.2437
  -6.500  -0.7470   0.01438   0.00695   0.0042  1.0000  0.1019  -2.8196   0.0000   0.2481
  -6.000  -0.7077   0.01340   0.00613   0.0070  1.0000  0.1291  -2.5564   0.0000   0.2529
  -5.500  -0.6675   0.01251   0.00545   0.0096  1.0000  0.1709  -2.3087   0.0000   0.2578
  -5.000  -0.6261   0.01172   0.00493   0.0119  1.0000  0.2271  -2.0686   0.0000   0.2629
  -4.500  -0.5833   0.01107   0.00456   0.0139  1.0000  0.2907  -1.8396   0.0000   0.2681
  -4.000  -0.5388   0.01057   0.00433   0.0156  1.0000  0.3571  -1.6253   0.0000   0.2735
  -3.500  -0.4772   0.01012   0.00417   0.0137  0.9963  0.4310  -1.3962   0.0000   0.2737
  -3.000  -0.3968   0.00964   0.00400   0.0082  0.9865  0.5099  -1.1596   0.0000   0.2658
  -2.500  -0.3173   0.00919   0.00383   0.0032  0.9757  0.5841  -0.9576   0.0000   0.2553
  -2.000  -0.2382   0.00875   0.00366  -0.0014  0.9642  0.6531  -0.7873   0.0000   0.2393
  -1.500  -0.1678   0.00833   0.00349  -0.0038  0.9478  0.7142  -0.6555   0.0000   0.2227
  -1.000  -0.1063   0.00799   0.00334  -0.0039  0.9255  0.7687  -0.5551   0.0000   0.2086
  -0.500  -0.0519   0.00776   0.00324  -0.0023  0.8958  0.8171  -0.4772   0.0000   0.2012
   0.000   0.0000   0.00768   0.00320  -0.0000  0.8599  0.8599  -0.4132   0.0000   0.4232
   0.500   0.0519   0.00776   0.00324   0.0023  0.8170  0.8958  -0.4772   0.0000   0.2012
   1.000   0.1063   0.00799   0.00334   0.0039  0.7687  0.9255  -0.5551   0.0000   0.2085
   1.500   0.1678   0.00833   0.00349   0.0038  0.7142  0.9478  -0.6555   0.0000   0.2227
   2.000   0.2382   0.00875   0.00366   0.0014  0.6531  0.9642  -0.7873   0.0000   0.2393
   2.500   0.3173   0.00919   0.00383  -0.0032  0.5841  0.9757  -0.9576   0.0000   0.2553
   3.000   0.3968   0.00964   0.00399  -0.0082  0.5099  0.9865  -1.1596   0.0000   0.2658
   3.500   0.4772   0.01012   0.00417  -0.0137  0.4310  0.9963  -1.3962   0.0000   0.2737
   4.000   0.5387   0.01056   0.00432  -0.0155  0.3571  1.0000  -1.6251   0.0000   0.2735
   4.500   0.5833   0.01107   0.00456  -0.0138  0.2907  1.0000  -1.8394   0.0000   0.2681
   5.000   0.6260   0.01172   0.00493  -0.0118  0.2271  1.0000  -2.0684   0.0000   0.2628
   5.500   0.6674   0.01250   0.00545  -0.0094  0.1709  1.0000  -2.3085   0.0000   0.2578
   6.000   0.7076   0.01340   0.00613  -0.0068  0.1292  1.0000  -2.5562   0.0000   0.2529
   6.500   0.7469   0.01438   0.00695  -0.0040  0.1020  1.0000  -2.8195   0.0000   0.2481
   7.000   0.7860   0.01539   0.00788  -0.0010  0.0839  1.0000  -3.0885   0.0000   0.2437
   7.500   0.8244   0.01652   0.00895   0.0020  0.0718  1.0000  -3.3752   0.0000   0.2395
   8.000   0.8626   0.01772   0.01014   0.0049  0.0628  1.0000  -3.6691   0.0000   0.2356
   8.500   0.9013   0.01900   0.01143   0.0077  0.0559  1.0000  -3.9765   0.0000   0.2323
   9.000   0.9398   0.02048   0.01291   0.0103  0.0505  1.0000  -4.3012   0.0000   0.2293
   9.500   0.9787   0.02206   0.01457   0.0128  0.0461  1.0000  -4.6287   0.0000   0.2266
  10.000   1.0170   0.02377   0.01637   0.0151  0.0424  1.0000  -4.9647   0.0000   0.2242
  10.500   1.0548   0.02571   0.01835   0.0173  0.0395  1.0000  -5.3246   0.0000   0.2220
  11.000   1.0905   0.02766   0.02047   0.0198  0.0368  1.0000  -5.6779   0.0000   0.2197
  11.500   1.1215   0.03012   0.02322   0.0225  0.0346  1.0000  -5.9962   0.0000   0.2171
  12.000   1.1543   0.03270   0.02584   0.0247  0.0330  1.0000  -6.3492   0.0000   0.2151
  12.500   1.1650   0.03577   0.02943   0.0295  0.0314  1.0000  -6.5726   0.0000   0.2105
  13.000   1.1872   0.03841   0.03210   0.0323  0.0301  1.0000  -6.9200   0.0000   0.2078
  13.500   1.1769   0.04323   0.03747   0.0364  0.0293  1.0000  -7.0170   0.0000   0.2032
  14.000   1.1576   0.04958   0.04435   0.0380  0.0287  1.0000  -7.0429   0.0000   0.2004
  14.500   1.1323   0.05781   0.05304   0.0362  0.0283  1.0000  -7.0123   0.0000   0.2002
  15.000   1.0929   0.06952   0.06521   0.0302  0.0282  1.0000  -6.8426   0.0000   0.2034
  15.500   1.0156   0.09025   0.08653   0.0161  0.0287  1.0000  -6.2754   0.0000   0.2140
  16.000   0.9218   0.11934   0.11602  -0.0039  0.0298  1.0000  -5.3743   0.0000   0.2334
  30.500   1.1732   0.34572   0.34270  -0.1779  0.0109  1.0000  -2.5243   0.0000   0.3548
  31.000   1.1857   0.34984   0.34684  -0.1831  0.0105  1.0000  -2.5961   0.0000   0.3559
  31.500   1.1972   0.35346   0.35050  -0.1876  0.0102  1.0000  -2.6619   0.0000   0.3564
  32.000   1.2109   0.35914   0.35618  -0.1941  0.0100  1.0000  -2.7577   0.0000   0.3587
  32.500   1.2231   0.36371   0.36078  -0.1996  0.0093  1.0000  -2.8374   0.0000   0.3600


