xflr5 v6.33

 Calculated polar for: NACA 0012-64

 1 1 Reynolds number fixed          Mach number fixed         

 xtrf =   1.000 (top)        1.000 (bottom)
 Mach =   0.000     Re =     3.200 e 6     Ncrit =   9.000

  alpha     CL        CD       CDp       Cm    Top Xtr Bot Xtr   Cpmin    Chinge    XCp    
 ------- -------- --------- --------- -------- ------- ------- -------- --------- ---------
 -26.000  -0.9996   0.27459   0.27358   0.0938  1.0000  0.0042  -6.4390   0.0000   0.3025
 -25.500  -0.9925   0.26601   0.26499   0.0873  1.0000  0.0046  -6.6499   0.0000   0.2975
 -25.000  -0.9989   0.25196   0.25085   0.0780  1.0000  0.0052  -7.3785   0.0000   0.2879
 -24.500  -0.9908   0.24447   0.24335   0.0720  1.0000  0.0057  -7.4050   0.0000   0.2836
 -24.000  -0.9858   0.23592   0.23477   0.0655  1.0000  0.0061  -7.5086   0.0000   0.2784
 -23.500  -0.9899   0.22453   0.22332   0.0574  1.0000  0.0064  -7.8537   0.0000   0.2708
 -23.000  -0.9951   0.21314   0.21188   0.0493  1.0000  0.0070  -8.1547   0.0000   0.2632
 -22.500  -1.0289   0.19428   0.19293   0.0366  1.0000  0.0075  -9.0611   0.0000   0.2496
 -22.000  -1.2681   0.13318   0.13118  -0.0026  1.0000  0.0069  -13.2735   0.0000   0.2119
 -21.500  -1.4954   0.08518   0.08248  -0.0297  1.0000  0.0064  -16.2194   0.0000   0.1957
 -21.000  -1.5627   0.06742   0.06440  -0.0391  1.0000  0.0064  -16.7404   0.0000   0.1922
 -20.500  -1.5947   0.05637   0.05312  -0.0439  1.0000  0.0064  -16.7620   0.0000   0.1912
 -20.000  -1.6104   0.04843   0.04498  -0.0464  1.0000  0.0065  -16.5627   0.0000   0.1914
 -19.500  -1.6228   0.04171   0.03807  -0.0472  1.0000  0.0067  -16.3105   0.0000   0.1925
 -19.000  -1.6292   0.03632   0.03250  -0.0465  1.0000  0.0071  -15.9811   0.0000   0.1943
 -18.500  -1.6268   0.03222   0.02826  -0.0449  1.0000  0.0074  -15.5531   0.0000   0.1965
 -18.000  -1.6173   0.02903   0.02495  -0.0428  1.0000  0.0077  -15.0690   0.0000   0.1988
 -17.500  -1.6018   0.02650   0.02231  -0.0403  1.0000  0.0080  -14.5316   0.0000   0.2012
 -17.000  -1.5847   0.02424   0.01992  -0.0374  1.0000  0.0085  -13.9896   0.0000   0.2039
 -16.500  -1.5659   0.02220   0.01779  -0.0341  1.0000  0.0091  -13.4391   0.0000   0.2067
 -16.000  -1.5415   0.02062   0.01613  -0.0309  1.0000  0.0097  -12.8470   0.0000   0.2094
 -15.500  -1.5142   0.01927   0.01469  -0.0277  1.0000  0.0103  -12.2641   0.0000   0.2121
 -15.000  -1.4867   0.01796   0.01333  -0.0243  1.0000  0.0114  -11.6908   0.0000   0.2150
 -14.000  -1.4254   0.01601   0.01129  -0.0172  1.0000  0.0138  -10.5248   0.0000   0.2211
 -13.500  -1.3949   0.01535   0.01058  -0.0131  1.0000  0.0146  -9.9565   0.0000   0.2246
 -13.000  -1.3676   0.01467   0.00987  -0.0081  1.0000  0.0160  -9.4241   0.0000   0.2289
 -12.000  -1.2794   0.01351   0.00867  -0.0050  0.9985  0.0178  -8.1886   0.0000   0.2325
 -11.500  -1.2228   0.01283   0.00799  -0.0061  0.9971  0.0194  -7.5281   0.0000   0.2321
 -11.000  -1.1637   0.01233   0.00750  -0.0076  0.9959  0.0204  -6.8736   0.0000   0.2313
 -10.500  -1.1031   0.01192   0.00708  -0.0094  0.9951  0.0209  -6.2355   0.0000   0.2300
 -10.000  -1.0477   0.01119   0.00633  -0.0101  0.9925  0.0224  -5.6696   0.0000   0.2296
  -9.500  -0.9892   0.01070   0.00584  -0.0113  0.9898  0.0234  -5.1489   0.0000   0.2284
  -9.000  -0.9325   0.01028   0.00542  -0.0120  0.9858  0.0242  -4.6702   0.0000   0.2276
  -8.500  -0.8806   0.00994   0.00507  -0.0115  0.9792  0.0247  -4.2288   0.0000   0.2280
  -8.000  -0.8328   0.00939   0.00448  -0.0101  0.9709  0.0262  -3.8438   0.0000   0.2294
  -7.500  -0.7826   0.00900   0.00409  -0.0091  0.9624  0.0275  -3.4796   0.0000   0.2303
  -7.000  -0.7312   0.00866   0.00373  -0.0084  0.9538  0.0284  -3.1594   0.0000   0.2310
  -6.500  -0.6789   0.00835   0.00339  -0.0079  0.9448  0.0290  -2.8792   0.0000   0.2313
  -5.500  -0.5734   0.00768   0.00269  -0.0069  0.9244  0.0327  -2.3584   0.0000   0.2317
  -5.000  -0.5194   0.00742   0.00242  -0.0066  0.9133  0.0347  -2.1048   0.0000   0.2313
  -4.500  -0.4661   0.00710   0.00213  -0.0062  0.9008  0.0435  -1.8633   0.0000   0.2310
  -4.000  -0.4132   0.00672   0.00186  -0.0057  0.8881  0.0688  -1.6333   0.0000   0.2307
  -3.500  -0.3592   0.00646   0.00165  -0.0055  0.8746  0.0884  -1.4206   0.0000   0.2295
  -3.000  -0.3057   0.00614   0.00144  -0.0051  0.8602  0.1236  -1.2171   0.0000   0.2282
  -2.500  -0.2524   0.00580   0.00126  -0.0047  0.8451  0.1757  -1.0324   0.0000   0.2263
  -2.000  -0.1996   0.00547   0.00110  -0.0043  0.8249  0.2370  -0.8584   0.0000   0.2238
  -1.500  -0.1518   0.00483   0.00088  -0.0029  0.7961  0.3873  -0.7000   0.0000   0.2263
  -1.000  -0.1024   0.00435   0.00073  -0.0018  0.7633  0.5114  -0.5452   0.0000   0.2282
  -0.500  -0.0513   0.00410   0.00066  -0.0009  0.7248  0.6000  -0.4247   0.0000   0.2281
   0.000  -0.0000   0.00399   0.00063   0.0000  0.6741  0.6741  -0.3385   0.0000   0.4450
   0.500   0.0513   0.00410   0.00066   0.0009  0.6000  0.7248  -0.4247   0.0000   0.2281
   1.000   0.1024   0.00435   0.00073   0.0018  0.5114  0.7633  -0.5452   0.0000   0.2282
   1.500   0.1518   0.00483   0.00088   0.0029  0.3873  0.7961  -0.7000   0.0000   0.2263
   2.000   0.1996   0.00547   0.00110   0.0043  0.2370  0.8249  -0.8584   0.0000   0.2238
   2.500   0.2525   0.00580   0.00126   0.0047  0.1757  0.8451  -1.0324   0.0000   0.2263
   3.000   0.3057   0.00614   0.00144   0.0051  0.1236  0.8602  -1.2171   0.0000   0.2282
   3.500   0.3592   0.00646   0.00165   0.0055  0.0884  0.8747  -1.4207   0.0000   0.2296
   4.000   0.4133   0.00672   0.00186   0.0057  0.0688  0.8882  -1.6334   0.0000   0.2307
   4.500   0.4661   0.00710   0.00213   0.0062  0.0435  0.9008  -1.8635   0.0000   0.2310
   5.000   0.5195   0.00742   0.00242   0.0066  0.0346  0.9133  -2.1049   0.0000   0.2313
   5.500   0.5735   0.00768   0.00269   0.0068  0.0327  0.9244  -2.3586   0.0000   0.2318
   6.000   0.6268   0.00800   0.00300   0.0072  0.0306  0.9346  -2.6187   0.0000   0.2318
   6.500   0.6789   0.00835   0.00339   0.0078  0.0290  0.9448  -2.8794   0.0000   0.2314
   7.000   0.7313   0.00866   0.00373   0.0084  0.0284  0.9538  -3.1597   0.0000   0.2310
   7.500   0.7827   0.00900   0.00409   0.0091  0.0275  0.9624  -3.4800   0.0000   0.2304
   8.000   0.8330   0.00939   0.00448   0.0100  0.0262  0.9709  -3.8442   0.0000   0.2294
   8.500   0.8808   0.00994   0.00507   0.0114  0.0247  0.9792  -4.2294   0.0000   0.2280
   9.000   0.9326   0.01028   0.00542   0.0119  0.0242  0.9858  -4.6709   0.0000   0.2276
   9.500   0.9894   0.01070   0.00584   0.0112  0.0234  0.9898  -5.1495   0.0000   0.2285
  10.000   1.0478   0.01119   0.00633   0.0100  0.0224  0.9925  -5.6702   0.0000   0.2296
  10.500   1.1032   0.01191   0.00708   0.0093  0.0209  0.9951  -6.2362   0.0000   0.2301
  11.000   1.1639   0.01233   0.00750   0.0076  0.0204  0.9959  -6.8747   0.0000   0.2313
  11.500   1.2230   0.01283   0.00799   0.0061  0.0194  0.9971  -7.5294   0.0000   0.2322
  12.000   1.2797   0.01351   0.00867   0.0049  0.0178  0.9985  -8.1900   0.0000   0.2325
  12.500   1.3357   0.01413   0.00931   0.0039  0.0170  0.9998  -8.8721   0.0000   0.2326
  13.000   1.3675   0.01467   0.00987   0.0081  0.0160  1.0000  -9.4238   0.0000   0.2289
  13.500   1.3950   0.01534   0.01057   0.0130  0.0146  1.0000  -9.9577   0.0000   0.2246
  14.000   1.4260   0.01601   0.01129   0.0171  0.0138  1.0000  -10.5286   0.0000   0.2212
  14.500   1.4560   0.01696   0.01226   0.0209  0.0123  1.0000  -11.1012   0.0000   0.2179
  15.000   1.4875   0.01796   0.01332   0.0241  0.0114  1.0000  -11.6962   0.0000   0.2151
  15.500   1.5150   0.01927   0.01469   0.0276  0.0103  1.0000  -12.2701   0.0000   0.2122
  16.000   1.5426   0.02062   0.01612   0.0307  0.0097  1.0000  -12.8546   0.0000   0.2096
  16.500   1.5671   0.02219   0.01778   0.0338  0.0091  1.0000  -13.4479   0.0000   0.2069
  17.000   1.5859   0.02423   0.01991   0.0371  0.0085  1.0000  -13.9993   0.0000   0.2040
  17.500   1.6033   0.02648   0.02229   0.0400  0.0080  1.0000  -14.5439   0.0000   0.2014
  18.000   1.6190   0.02900   0.02492   0.0425  0.0077  1.0000  -15.0828   0.0000   0.1990
  18.500   1.6286   0.03219   0.02823   0.0446  0.0074  1.0000  -15.5684   0.0000   0.1967
  19.000   1.6312   0.03628   0.03247   0.0462  0.0070  1.0000  -15.9984   0.0000   0.1945
  19.500   1.6248   0.04167   0.03802   0.0469  0.0067  1.0000  -16.3289   0.0000   0.1927
  20.000   1.6131   0.04832   0.04487   0.0460  0.0065  1.0000  -16.5889   0.0000   0.1916
  20.500   1.5977   0.05623   0.05297   0.0436  0.0064  1.0000  -16.7916   0.0000   0.1914
  21.000   1.5661   0.06723   0.06420   0.0388  0.0064  1.0000  -16.7750   0.0000   0.1924
  21.500   1.4996   0.08486   0.08216   0.0295  0.0064  1.0000  -16.2644   0.0000   0.1959
  22.000   1.2694   0.13342   0.13143   0.0021  0.0069  1.0000  -13.2773   0.0000   0.2123
  22.500   1.0301   0.19477   0.19342  -0.0371  0.0075  1.0000  -9.0591   0.0000   0.2501
  23.000   0.9965   0.21373   0.21247  -0.0498  0.0070  1.0000  -8.1564   0.0000   0.2636
  23.500   0.9914   0.22519   0.22398  -0.0579  0.0064  1.0000  -7.8569   0.0000   0.2711
  24.000   0.9875   0.23664   0.23550  -0.0660  0.0061  1.0000  -7.5144   0.0000   0.2788
  24.500   0.9926   0.24534   0.24423  -0.0725  0.0057  1.0000  -7.4114   0.0000   0.2840
  25.000   1.0008   0.25290   0.25178  -0.0785  0.0051  1.0000  -7.3890   0.0000   0.2883
  25.500   0.9944   0.26720   0.26617  -0.0879  0.0046  1.0000  -6.6528   0.0000   0.2979
  26.000   1.0017   0.27583   0.27482  -0.0944  0.0042  1.0000  -6.4510   0.0000   0.3028


