xflr5 v6.33

 Calculated polar for: NACA 0012-64

 1 1 Reynolds number fixed          Mach number fixed         

 xtrf =   1.000 (top)        1.000 (bottom)
 Mach =   0.000     Re =     3.800 e 6     Ncrit =   9.000

  alpha     CL        CD       CDp       Cm    Top Xtr Bot Xtr   Cpmin    Chinge    XCp    
 ------- -------- --------- --------- -------- ------- ------- -------- --------- ---------
 -26.500  -1.0247   0.27432   0.27334   0.0964  1.0000  0.0039  -7.2374   0.0000   0.3004
 -26.000  -1.0140   0.26782   0.26683   0.0907  1.0000  0.0043  -7.2213   0.0000   0.2971
 -25.500  -1.0072   0.25967   0.25866   0.0842  1.0000  0.0047  -7.3501   0.0000   0.2923
 -25.000  -1.0006   0.25153   0.25048   0.0778  1.0000  0.0050  -7.4552   0.0000   0.2875
 -24.500  -0.9966   0.24249   0.24140   0.0709  1.0000  0.0054  -7.6244   0.0000   0.2819
 -24.000  -0.9901   0.23456   0.23347   0.0647  1.0000  0.0058  -7.6615   0.0000   0.2772
 -23.500  -0.9933   0.22360   0.22246   0.0568  1.0000  0.0062  -7.9594   0.0000   0.2699
 -23.000  -1.0028   0.21096   0.20974   0.0480  1.0000  0.0065  -8.3607   0.0000   0.2613
 -22.500  -1.0587   0.18670   0.18532   0.0317  1.0000  0.0070  -9.7101   0.0000   0.2437
 -22.000  -1.4962   0.09229   0.08974  -0.0259  1.0000  0.0059  -16.5644   0.0000   0.1968
 -21.500  -1.5780   0.07198   0.06908  -0.0368  1.0000  0.0059  -17.3025   0.0000   0.1925
 -21.000  -1.6191   0.05938   0.05623  -0.0427  1.0000  0.0060  -17.4443   0.0000   0.1910
 -20.500  -1.6416   0.05039   0.04704  -0.0458  1.0000  0.0061  -17.3244   0.0000   0.1910
 -20.000  -1.6524   0.04366   0.04014  -0.0470  1.0000  0.0062  -17.0483   0.0000   0.1919
 -19.500  -1.6548   0.03847   0.03479  -0.0469  1.0000  0.0064  -16.6675   0.0000   0.1933
 -19.000  -1.6502   0.03438   0.03056  -0.0459  1.0000  0.0065  -16.2083   0.0000   0.1951
 -18.500  -1.6442   0.03073   0.02677  -0.0440  1.0000  0.0067  -15.7372   0.0000   0.1973
 -18.000  -1.6363   0.02752   0.02344  -0.0415  1.0000  0.0072  -15.2627   0.0000   0.1999
 -17.500  -1.6217   0.02503   0.02084  -0.0386  1.0000  0.0076  -14.7291   0.0000   0.2026
 -17.000  -1.6015   0.02306   0.01878  -0.0357  1.0000  0.0080  -14.1501   0.0000   0.2052
 -16.500  -1.5784   0.02138   0.01700  -0.0327  1.0000  0.0083  -13.5552   0.0000   0.2078
 -16.000  -1.5554   0.01973   0.01528  -0.0292  1.0000  0.0091  -12.9748   0.0000   0.2107
 -15.500  -1.5275   0.01846   0.01393  -0.0259  1.0000  0.0098  -12.3810   0.0000   0.2134
 -15.000  -1.4974   0.01733   0.01275  -0.0227  1.0000  0.0105  -11.7842   0.0000   0.2162
 -14.500  -1.4676   0.01627   0.01164  -0.0191  1.0000  0.0116  -11.1992   0.0000   0.2192
 -14.000  -1.4379   0.01543   0.01076  -0.0150  1.0000  0.0128  -10.6245   0.0000   0.2227
 -13.500  -1.4084   0.01470   0.01002  -0.0107  1.0000  0.0141  -10.0611   0.0000   0.2264
 -13.000  -1.3821   0.01418   0.00944  -0.0053  1.0000  0.0149  -9.5293   0.0000   0.2309
 -12.000  -1.2760   0.01284   0.00810  -0.0061  0.9977  0.0174  -8.1824   0.0000   0.2316
 -11.500  -1.2191   0.01220   0.00745  -0.0073  0.9964  0.0187  -7.5208   0.0000   0.2312
 -11.000  -1.1605   0.01166   0.00692  -0.0087  0.9955  0.0199  -6.8704   0.0000   0.2304
 -10.500  -1.1020   0.01123   0.00650  -0.0100  0.9939  0.0207  -6.2436   0.0000   0.2295
 -10.000  -1.0456   0.01070   0.00595  -0.0107  0.9908  0.0215  -5.6672   0.0000   0.2289
  -9.500  -0.9895   0.01017   0.00542  -0.0114  0.9871  0.0228  -5.1600   0.0000   0.2283
  -9.000  -0.9400   0.00978   0.00503  -0.0104  0.9797  0.0237  -4.7102   0.0000   0.2294
  -8.500  -0.8898   0.00945   0.00468  -0.0095  0.9721  0.0244  -4.2740   0.0000   0.2303
  -8.000  -0.8387   0.00914   0.00437  -0.0087  0.9643  0.0247  -3.8650   0.0000   0.2311
  -7.500  -0.7888   0.00866   0.00385  -0.0077  0.9554  0.0265  -3.5061   0.0000   0.2322
  -7.000  -0.7370   0.00833   0.00350  -0.0071  0.9463  0.0277  -3.1829   0.0000   0.2328
  -6.500  -0.6840   0.00802   0.00318  -0.0067  0.9369  0.0285  -2.9023   0.0000   0.2331
  -6.000  -0.6302   0.00776   0.00290  -0.0065  0.9268  0.0290  -2.6288   0.0000   0.2331
  -5.500  -0.5768   0.00744   0.00256  -0.0061  0.9163  0.0313  -2.3711   0.0000   0.2331
  -5.000  -0.5228   0.00718   0.00230  -0.0058  0.9042  0.0335  -2.1160   0.0000   0.2329
  -4.500  -0.4687   0.00691   0.00205  -0.0056  0.8915  0.0391  -1.8709   0.0000   0.2324
  -4.000  -0.4155   0.00656   0.00178  -0.0052  0.8783  0.0615  -1.6387   0.0000   0.2321
  -3.500  -0.3612   0.00630   0.00158  -0.0050  0.8642  0.0804  -1.4252   0.0000   0.2310
  -3.000  -0.3071   0.00603   0.00140  -0.0048  0.8492  0.1080  -1.2201   0.0000   0.2295
  -2.500  -0.2538   0.00571   0.00122  -0.0044  0.8329  0.1570  -1.0349   0.0000   0.2278
  -2.000  -0.2006   0.00544   0.00107  -0.0040  0.8086  0.2094  -0.8602   0.0000   0.2255
  -1.500  -0.1504   0.00498   0.00089  -0.0030  0.7753  0.3203  -0.6978   0.0000   0.2253
  -1.000  -0.1015   0.00446   0.00073  -0.0019  0.7422  0.4580  -0.5440   0.0000   0.2272
  -0.500  -0.0506   0.00418   0.00064  -0.0010  0.7017  0.5566  -0.4241   0.0000   0.2261
   0.000   0.0000   0.00416   0.00062  -0.0000  0.6286  0.6286  -0.3386   0.0000   0.4796
   0.500   0.0506   0.00418   0.00064   0.0010  0.5566  0.7017  -0.4241   0.0000   0.2261
   1.000   0.1015   0.00446   0.00073   0.0019  0.4580  0.7422  -0.5440   0.0000   0.2272
   1.500   0.1505   0.00498   0.00089   0.0030  0.3202  0.7753  -0.6978   0.0000   0.2254
   2.000   0.2006   0.00544   0.00107   0.0040  0.2094  0.8086  -0.8602   0.0000   0.2255
   2.500   0.2538   0.00571   0.00122   0.0044  0.1569  0.8329  -1.0350   0.0000   0.2279
   3.000   0.3072   0.00603   0.00140   0.0048  0.1080  0.8492  -1.2201   0.0000   0.2295
   3.500   0.3612   0.00630   0.00158   0.0050  0.0804  0.8642  -1.4252   0.0000   0.2310
   4.000   0.4155   0.00656   0.00178   0.0052  0.0615  0.8783  -1.6388   0.0000   0.2321
   4.500   0.4688   0.00692   0.00205   0.0056  0.0391  0.8915  -1.8710   0.0000   0.2324
   5.000   0.5229   0.00718   0.00230   0.0058  0.0335  0.9042  -2.1161   0.0000   0.2329
   5.500   0.5769   0.00744   0.00256   0.0061  0.0313  0.9163  -2.3713   0.0000   0.2332
   6.000   0.6303   0.00776   0.00290   0.0064  0.0290  0.9268  -2.6290   0.0000   0.2331
   6.500   0.6840   0.00802   0.00318   0.0067  0.0285  0.9369  -2.9025   0.0000   0.2331
   7.000   0.7371   0.00833   0.00350   0.0071  0.0277  0.9463  -3.1832   0.0000   0.2329
   7.500   0.7890   0.00866   0.00385   0.0077  0.0265  0.9554  -3.5065   0.0000   0.2322
   8.000   0.8388   0.00914   0.00437   0.0087  0.0247  0.9643  -3.8655   0.0000   0.2311
   8.500   0.8900   0.00945   0.00468   0.0094  0.0244  0.9721  -4.2746   0.0000   0.2304
   9.000   0.9402   0.00978   0.00503   0.0103  0.0237  0.9797  -4.7109   0.0000   0.2294
   9.500   0.9897   0.01017   0.00542   0.0113  0.0228  0.9871  -5.1608   0.0000   0.2284
  10.000   1.0458   0.01070   0.00595   0.0107  0.0215  0.9908  -5.6680   0.0000   0.2290
  10.500   1.1021   0.01123   0.00650   0.0099  0.0207  0.9939  -6.2444   0.0000   0.2295
  11.000   1.1607   0.01166   0.00692   0.0086  0.0199  0.9955  -6.8716   0.0000   0.2304
  11.500   1.2193   0.01220   0.00745   0.0072  0.0187  0.9964  -7.5221   0.0000   0.2312
  12.000   1.2763   0.01284   0.00810   0.0061  0.0174  0.9977  -8.1839   0.0000   0.2316
  12.500   1.3326   0.01343   0.00870   0.0050  0.0165  0.9990  -8.8686   0.0000   0.2318
  13.000   1.3819   0.01417   0.00944   0.0054  0.0149  1.0000  -9.5284   0.0000   0.2309
  13.500   1.4084   0.01470   0.01001   0.0106  0.0141  1.0000  -10.0616   0.0000   0.2264
  14.000   1.4383   0.01543   0.01076   0.0149  0.0128  1.0000  -10.6275   0.0000   0.2227
  14.500   1.4683   0.01627   0.01165   0.0190  0.0116  1.0000  -11.2036   0.0000   0.2193
  15.000   1.4982   0.01734   0.01275   0.0225  0.0105  1.0000  -11.7894   0.0000   0.2163
  15.500   1.5283   0.01846   0.01393   0.0258  0.0098  1.0000  -12.3873   0.0000   0.2136
  16.000   1.5564   0.01973   0.01528   0.0290  0.0091  1.0000  -12.9819   0.0000   0.2108
  16.500   1.5794   0.02138   0.01700   0.0324  0.0083  1.0000  -13.5635   0.0000   0.2079
  17.000   1.6028   0.02305   0.01877   0.0355  0.0080  1.0000  -14.1603   0.0000   0.2053
  17.500   1.6231   0.02501   0.02083   0.0384  0.0076  1.0000  -14.7405   0.0000   0.2027
  18.000   1.6378   0.02751   0.02342   0.0412  0.0072  1.0000  -15.2756   0.0000   0.2001
  18.500   1.6459   0.03071   0.02675   0.0438  0.0067  1.0000  -15.7518   0.0000   0.1975
  19.000   1.6523   0.03433   0.03050   0.0456  0.0065  1.0000  -16.2275   0.0000   0.1953
  19.500   1.6571   0.03840   0.03472   0.0466  0.0064  1.0000  -16.6889   0.0000   0.1935
  20.000   1.6549   0.04358   0.04005   0.0467  0.0062  1.0000  -17.0720   0.0000   0.1921
  20.500   1.6444   0.05028   0.04692   0.0455  0.0061  1.0000  -17.3512   0.0000   0.1912
  21.000   1.6222   0.05924   0.05609   0.0424  0.0059  1.0000  -17.4745   0.0000   0.1913
  21.500   1.5814   0.07180   0.06889   0.0365  0.0059  1.0000  -17.3373   0.0000   0.1927
  22.000   1.4999   0.09207   0.08951   0.0256  0.0059  1.0000  -16.6041   0.0000   0.1970
  22.500   1.0592   0.18733   0.18596  -0.0323  0.0070  1.0000  -9.6949   0.0000   0.2443
  23.000   1.0042   0.21154   0.21032  -0.0485  0.0065  1.0000  -8.3629   0.0000   0.2617
  23.500   0.9949   0.22421   0.22307  -0.0573  0.0062  1.0000  -7.9651   0.0000   0.2703
  24.000   0.9919   0.23529   0.23420  -0.0652  0.0058  1.0000  -7.6683   0.0000   0.2776
  24.500   0.9984   0.24329   0.24220  -0.0714  0.0054  1.0000  -7.6333   0.0000   0.2823
  25.000   1.0024   0.25248   0.25143  -0.0783  0.0050  1.0000  -7.4607   0.0000   0.2879
  25.500   1.0090   0.26078   0.25976  -0.0847  0.0047  1.0000  -7.3543   0.0000   0.2927
  26.000   1.0160   0.26900   0.26801  -0.0912  0.0043  1.0000  -7.2309   0.0000   0.2974
  26.500   1.0266   0.27575   0.27477  -0.0970  0.0039  1.0000  -7.2356   0.0000   0.3008


