xflr5 v6.33

 Calculated polar for: NACA 0012 v1

 1 1 Reynolds number fixed          Mach number fixed         

 xtrf =   1.000 (top)        1.000 (bottom)
 Mach =   0.000     Re =     0.500 e 6     Ncrit =   9.000

  alpha     CL        CD       CDp       Cm    Top Xtr Bot Xtr   Cpmin    Chinge    XCp    
 ------- -------- --------- --------- -------- ------- ------- -------- --------- ---------
 -27.500  -0.6638   0.29709   0.29506   0.0726  1.0000  0.0104  -1.2061   0.0000   0.3343
 -27.000  -0.6580   0.29211   0.29006   0.0701  1.0000  0.0109  -1.1686   0.0000   0.3324
 -26.500  -0.6529   0.28635   0.28428   0.0675  1.0000  0.0119  -1.1858   0.0000   0.3300
 -26.000  -0.6490   0.27996   0.27787   0.0648  1.0000  0.0123  -1.2709   0.0000   0.3269
 -25.500  -0.6424   0.27531   0.27320   0.0625  1.0000  0.0127  -1.2191   0.0000   0.3252
 -25.000  -0.6367   0.26997   0.26784   0.0600  1.0000  0.0136  -1.2243   0.0000   0.3228
 -24.500  -0.6339   0.26303   0.26088   0.0571  1.0000  0.0143  -1.3537   0.0000   0.3188
 -24.000  -0.6261   0.25886   0.25669   0.0550  1.0000  0.0148  -1.2629   0.0000   0.3175
 -23.500  -0.6203   0.25362   0.25143   0.0525  1.0000  0.0159  -1.2708   0.0000   0.3150
 -23.000  -0.9503   0.26771   0.26518   0.1020  1.0000  0.0150  -2.1149   0.0000   0.3286
 -22.500  -0.9344   0.26137   0.25883   0.0968  1.0000  0.0163  -2.1809   0.0000   0.3257
 -18.000  -1.1225   0.10954   0.10616  -0.0008  1.0000  0.0191  -8.2118   0.0000   0.2230
 -17.500  -1.1570   0.09488   0.09122  -0.0098  1.0000  0.0192  -8.4629   0.0000   0.2164
 -17.000  -1.1828   0.08270   0.07880  -0.0167  1.0000  0.0194  -8.5744   0.0000   0.2118
 -16.500  -1.2050   0.07179   0.06764  -0.0226  1.0000  0.0196  -8.6199   0.0000   0.2083
 -16.000  -1.2230   0.06215   0.05773  -0.0275  1.0000  0.0199  -8.6071   0.0000   0.2057
 -15.500  -1.2359   0.05377   0.04906  -0.0313  1.0000  0.0203  -8.5379   0.0000   0.2040
 -15.000  -1.2441   0.04660   0.04157  -0.0337  1.0000  0.0209  -8.4214   0.0000   0.2034
 -14.500  -1.2484   0.04064   0.03520  -0.0346  1.0000  0.0214  -8.2659   0.0000   0.2038
 -14.000  -1.2391   0.03656   0.03108  -0.0336  1.0000  0.0221  -7.9776   0.0000   0.2053
 -13.500  -1.2276   0.03316   0.02750  -0.0320  1.0000  0.0230  -7.6781   0.0000   0.2073
 -13.000  -1.2144   0.03019   0.02422  -0.0293  1.0000  0.0239  -7.3845   0.0000   0.2102
 -12.500  -1.1978   0.02756   0.02150  -0.0258  1.0000  0.0248  -7.0571   0.0000   0.2136
 -12.000  -1.1760   0.02567   0.01947  -0.0220  1.0000  0.0261  -6.7177   0.0000   0.2172
 -11.500  -1.1496   0.02377   0.01741  -0.0185  1.0000  0.0276  -6.3690   0.0000   0.2205
 -11.000  -1.1159   0.02222   0.01575  -0.0158  1.0000  0.0294  -5.9838   0.0000   0.2232
 -10.500  -1.0815   0.02060   0.01406  -0.0131  1.0000  0.0312  -5.6054   0.0000   0.2259
 -10.000  -1.0436   0.01923   0.01258  -0.0107  1.0000  0.0338  -5.2192   0.0000   0.2284
  -9.500  -1.0041   0.01800   0.01126  -0.0084  1.0000  0.0367  -4.8530   0.0000   0.2310
  -9.000  -0.9643   0.01684   0.01007  -0.0059  1.0000  0.0403  -4.4941   0.0000   0.2338
  -8.500  -0.9246   0.01578   0.00899  -0.0033  1.0000  0.0446  -4.1429   0.0000   0.2369
  -8.000  -0.8843   0.01486   0.00804  -0.0007  1.0000  0.0502  -3.8087   0.0000   0.2403
  -7.500  -0.8441   0.01397   0.00716   0.0021  1.0000  0.0572  -3.4926   0.0000   0.2441
  -7.000  -0.8035   0.01318   0.00639   0.0048  1.0000  0.0671  -3.1827   0.0000   0.2481
  -6.500  -0.7628   0.01242   0.00570   0.0075  1.0000  0.0809  -2.8970   0.0000   0.2525
  -6.000  -0.7216   0.01172   0.00510   0.0101  1.0000  0.1014  -2.6177   0.0000   0.2570
  -5.500  -0.6796   0.01106   0.00459   0.0125  1.0000  0.1321  -2.3574   0.0000   0.2618
  -4.500  -0.5527   0.00967   0.00374   0.0080  0.9931  0.2447  -1.7820   0.0000   0.2586
  -4.000  -0.4788   0.00901   0.00339   0.0037  0.9864  0.3166  -1.5113   0.0000   0.2522
  -3.500  -0.4035   0.00841   0.00308  -0.0007  0.9798  0.3890  -1.2670   0.0000   0.2428
  -2.500  -0.2649   0.00736   0.00254  -0.0063  0.9573  0.5223  -0.8880   0.0000   0.2210
  -2.000  -0.2081   0.00695   0.00233  -0.0060  0.9362  0.5815  -0.7532   0.0000   0.2160
  -1.500  -0.1552   0.00662   0.00216  -0.0048  0.9093  0.6379  -0.6432   0.0000   0.2143
  -1.000  -0.1034   0.00638   0.00203  -0.0032  0.8764  0.6924  -0.5527   0.0000   0.2142
  -0.500  -0.0518   0.00622   0.00195  -0.0016  0.8372  0.7442  -0.4774   0.0000   0.2144
   0.000   0.0000   0.00617   0.00193  -0.0000  0.7929  0.7929  -0.4137   0.0000   0.1740
   0.500   0.0518   0.00622   0.00195   0.0016  0.7442  0.8372  -0.4774   0.0000   0.2144
   1.000   0.1034   0.00638   0.00203   0.0032  0.6924  0.8765  -0.5527   0.0000   0.2142
   1.500   0.1552   0.00662   0.00216   0.0048  0.6379  0.9093  -0.6432   0.0000   0.2143
   2.000   0.2081   0.00695   0.00233   0.0060  0.5815  0.9362  -0.7532   0.0000   0.2160
   2.500   0.2649   0.00736   0.00254   0.0063  0.5223  0.9573  -0.8880   0.0000   0.2210
   3.000   0.3308   0.00786   0.00279   0.0044  0.4582  0.9706  -1.0585   0.0000   0.2314
   3.500   0.4034   0.00841   0.00308   0.0008  0.3890  0.9798  -1.2670   0.0000   0.2428
   4.000   0.4788   0.00901   0.00339  -0.0036  0.3166  0.9864  -1.5113   0.0000   0.2522
   4.500   0.5527   0.00967   0.00374  -0.0079  0.2447  0.9931  -1.7820   0.0000   0.2586
   5.500   0.6795   0.01106   0.00459  -0.0123  0.1321  1.0000  -2.3572   0.0000   0.2618
   6.000   0.7215   0.01172   0.00509  -0.0099  0.1015  1.0000  -2.6175   0.0000   0.2570
   6.500   0.7628   0.01242   0.00569  -0.0073  0.0809  1.0000  -2.8968   0.0000   0.2524
   7.000   0.8034   0.01317   0.00639  -0.0046  0.0671  1.0000  -3.1825   0.0000   0.2481
   7.500   0.8441   0.01396   0.00716  -0.0018  0.0572  1.0000  -3.4924   0.0000   0.2441
   8.000   0.8842   0.01486   0.00804   0.0010  0.0502  1.0000  -3.8086   0.0000   0.2403
   8.500   0.9246   0.01578   0.00899   0.0037  0.0446  1.0000  -4.1429   0.0000   0.2369
   9.000   0.9643   0.01684   0.01007   0.0063  0.0403  1.0000  -4.4941   0.0000   0.2338
   9.500   1.0041   0.01800   0.01126   0.0088  0.0367  1.0000  -4.8531   0.0000   0.2310
  10.000   1.0437   0.01923   0.01258   0.0111  0.0338  1.0000  -5.2195   0.0000   0.2284
  10.500   1.0816   0.02060   0.01406   0.0136  0.0312  1.0000  -5.6059   0.0000   0.2259
  11.000   1.1161   0.02222   0.01575   0.0163  0.0293  1.0000  -5.9845   0.0000   0.2232
  11.500   1.1499   0.02377   0.01741   0.0190  0.0276  1.0000  -6.3700   0.0000   0.2206
  12.000   1.1763   0.02567   0.01947   0.0225  0.0261  1.0000  -6.7192   0.0000   0.2172
  12.500   1.1983   0.02756   0.02150   0.0263  0.0248  1.0000  -7.0593   0.0000   0.2136
  13.000   1.2149   0.03019   0.02422   0.0298  0.0239  1.0000  -7.3868   0.0000   0.2103
  13.500   1.2281   0.03316   0.02750   0.0326  0.0230  1.0000  -7.6811   0.0000   0.2074
  14.000   1.2398   0.03655   0.03107   0.0342  0.0221  1.0000  -7.9816   0.0000   0.2054
  14.500   1.2491   0.04064   0.03520   0.0353  0.0214  1.0000  -8.2697   0.0000   0.2039
  15.000   1.2449   0.04660   0.04157   0.0343  0.0208  1.0000  -8.4255   0.0000   0.2035
  15.500   1.2369   0.05376   0.04905   0.0319  0.0203  1.0000  -8.5431   0.0000   0.2042
  16.000   1.2241   0.06214   0.05772   0.0281  0.0199  1.0000  -8.6132   0.0000   0.2058
  16.500   1.2062   0.07177   0.06761   0.0232  0.0196  1.0000  -8.6273   0.0000   0.2084
  17.000   1.1843   0.08265   0.07874   0.0173  0.0194  1.0000  -8.5836   0.0000   0.2119
  17.500   1.1587   0.09478   0.09111   0.0104  0.0192  1.0000  -8.4755   0.0000   0.2165
  18.000   1.1246   0.10933   0.10594   0.0015  0.0191  1.0000  -8.2301   0.0000   0.2230


