xflr5 v6.33

 Calculated polar for: NACA 0012-64

 1 1 Reynolds number fixed          Mach number fixed         

 xtrf =   1.000 (top)        1.000 (bottom)
 Mach =   0.000     Re =     0.400 e 6     Ncrit =   9.000

  alpha     CL        CD       CDp       Cm    Top Xtr Bot Xtr   Cpmin    Chinge    XCp    
 ------- -------- --------- --------- -------- ------- ------- -------- --------- ---------
 -26.000  -0.9599   0.30427   0.30147   0.1001  1.0000  0.0122  -2.1929   0.0000   0.3176
 -25.500  -0.9448   0.29893   0.29612   0.0959  1.0000  0.0124  -2.1239   0.0000   0.3161
 -25.000  -0.9294   0.29426   0.29144   0.0917  1.0000  0.0128  -2.0252   0.0000   0.3145
 -24.500  -0.9136   0.28893   0.28609   0.0870  1.0000  0.0136  -1.9870   0.0000   0.3122
 -24.000  -0.8995   0.28131   0.27847   0.0797  1.0000  0.0147  -2.2527   0.0000   0.3064
 -23.500  -0.8824   0.27595   0.27310   0.0768  1.0000  0.0150  -2.0914   0.0000   0.3060
 -23.000  -0.8661   0.27096   0.26809   0.0728  1.0000  0.0155  -2.0039   0.0000   0.3041
 -22.500  -0.8499   0.26516   0.26228   0.0682  1.0000  0.0166  -1.9887   0.0000   0.3014
 -22.000  -0.8374   0.25662   0.25376   0.0611  1.0000  0.0177  -2.2753   0.0000   0.2947
 -21.500  -0.8189   0.25184   0.24896   0.0587  1.0000  0.0181  -2.0690   0.0000   0.2946
 -21.000  -0.8023   0.24633   0.24344   0.0547  1.0000  0.0191  -1.9953   0.0000   0.2921
 -20.500  -0.7912   0.23776   0.23489   0.0475  1.0000  0.0209  -2.2580   0.0000   0.2846
 -20.000  -0.7740   0.23147   0.22858   0.0446  1.0000  0.0213  -2.1736   0.0000   0.2831
 -19.500  -0.7565   0.22641   0.22351   0.0415  1.0000  0.0222  -2.0449   0.0000   0.2814
 -19.000  -0.7425   0.21903   0.21613   0.0365  1.0000  0.0243  -2.1123   0.0000   0.2764
 -17.000  -0.6965   0.18789   0.18501   0.0182  1.0000  0.0296  -2.3374   0.0000   0.2561
 -16.500  -0.6772   0.18323   0.18034   0.0165  1.0000  0.0310  -2.1480   0.0000   0.2553
 -15.500  -0.6648   0.16554   0.16266   0.0070  1.0000  0.0352  -2.3387   0.0000   0.2427
 -15.000  -0.6526   0.15911   0.15623   0.0040  1.0000  0.0380  -2.2671   0.0000   0.2392
 -14.500  -0.6665   0.14475   0.14191  -0.0039  1.0000  0.0405  -2.6107   0.0000   0.2275
 -14.000  -0.6489   0.14056   0.13770  -0.0046  1.0000  0.0422  -2.3954   0.0000   0.2271
 -13.500  -1.0844   0.04533   0.04078  -0.0489  1.0000  0.0277  -7.0704   0.0000   0.1892
 -13.000  -1.1089   0.04027   0.03515  -0.0430  1.0000  0.0286  -7.0361   0.0000   0.1964
 -12.500  -1.1195   0.03595   0.03039  -0.0361  1.0000  0.0297  -6.8940   0.0000   0.2037
 -12.000  -1.1033   0.03418   0.02857  -0.0313  1.0000  0.0309  -6.5154   0.0000   0.2084
 -11.500  -1.0866   0.03219   0.02633  -0.0261  1.0000  0.0326  -6.1719   0.0000   0.2134
 -11.000  -1.0757   0.03058   0.02425  -0.0191  1.0000  0.0341  -5.8804   0.0000   0.2204
 -10.500  -1.0476   0.02748   0.02109  -0.0156  1.0000  0.0359  -5.5003   0.0000   0.2238
 -10.000  -1.0218   0.02597   0.01941  -0.0108  1.0000  0.0377  -5.1470   0.0000   0.2288
  -9.500  -0.9965   0.02463   0.01778  -0.0056  1.0000  0.0394  -4.8283   0.0000   0.2343
  -9.000  -0.9655   0.02238   0.01543  -0.0018  1.0000  0.0413  -4.5048   0.0000   0.2387
  -8.500  -0.9353   0.02113   0.01411   0.0026  1.0000  0.0430  -4.1852   0.0000   0.2438
  -8.000  -0.9041   0.02003   0.01288   0.0068  1.0000  0.0450  -3.8745   0.0000   0.2491
  -7.500  -0.8721   0.01883   0.01153   0.0110  1.0000  0.0466  -3.5833   0.0000   0.2547
  -7.000  -0.8410   0.01754   0.01025   0.0151  1.0000  0.0489  -3.3202   0.0000   0.2605
  -6.500  -0.7837   0.01653   0.00918   0.0139  0.9969  0.0518  -2.9951   0.0000   0.2608
  -6.000  -0.7210   0.01538   0.00800   0.0116  0.9922  0.0558  -2.6988   0.0000   0.2595
  -5.500  -0.6533   0.01463   0.00721   0.0084  0.9878  0.0617  -2.4275   0.0000   0.2567
  -5.000  -0.5915   0.01363   0.00631   0.0064  0.9815  0.0758  -2.1924   0.0000   0.2550
  -4.500  -0.5279   0.01265   0.00558   0.0040  0.9761  0.1195  -1.9528   0.0000   0.2520
  -4.000  -0.4645   0.01164   0.00504   0.0015  0.9704  0.2126  -1.7092   0.0000   0.2478
  -3.500  -0.4105   0.01014   0.00445   0.0007  0.9624  0.4099  -1.5017   0.0000   0.2465
  -3.000  -0.3488   0.00886   0.00409  -0.0012  0.9582  0.6260  -1.2839   0.0000   0.2416
  -2.500  -0.2934   0.00840   0.00402  -0.0008  0.9490  0.7348  -1.0904   0.0000   0.2426
  -2.000  -0.2335   0.00822   0.00399  -0.0012  0.9406  0.7890  -0.9036   0.0000   0.2405
  -1.500  -0.1677   0.00806   0.00386  -0.0028  0.9347  0.8222  -0.7159   0.0000   0.2288
  -1.000  -0.1119   0.00804   0.00393  -0.0020  0.9239  0.8539  -0.5534   0.0000   0.2280
  -0.500  -0.0562   0.00810   0.00403  -0.0010  0.9128  0.8796  -0.4261   0.0000   0.2275
   0.000   0.0000   0.00820   0.00415  -0.0000  0.9002  0.9002  -0.3352   0.0000   0.4375
   0.500   0.0562   0.00810   0.00402   0.0010  0.8796  0.9128  -0.4261   0.0000   0.2275
   1.000   0.1119   0.00804   0.00393   0.0020  0.8539  0.9239  -0.5534   0.0000   0.2280
   1.500   0.1677   0.00806   0.00386   0.0028  0.8222  0.9347  -0.7159   0.0000   0.2288
   2.000   0.2335   0.00822   0.00399   0.0012  0.7890  0.9406  -0.9036   0.0000   0.2405
   2.500   0.2934   0.00840   0.00402   0.0008  0.7348  0.9490  -1.0904   0.0000   0.2426
   3.000   0.3488   0.00886   0.00409   0.0012  0.6261  0.9582  -1.2839   0.0000   0.2416
   3.500   0.4105   0.01014   0.00444  -0.0007  0.4099  0.9625  -1.5017   0.0000   0.2465
   4.000   0.4645   0.01164   0.00504  -0.0015  0.2126  0.9704  -1.7093   0.0000   0.2478
   4.500   0.5278   0.01265   0.00558  -0.0040  0.1195  0.9762  -1.9527   0.0000   0.2520
   5.000   0.5915   0.01362   0.00631  -0.0065  0.0758  0.9816  -2.1925   0.0000   0.2550
   5.500   0.6534   0.01463   0.00721  -0.0085  0.0617  0.9878  -2.4276   0.0000   0.2567
   6.000   0.7210   0.01538   0.00800  -0.0116  0.0558  0.9923  -2.6989   0.0000   0.2596
   6.500   0.7838   0.01652   0.00917  -0.0139  0.0518  0.9969  -2.9953   0.0000   0.2608
   7.000   0.8409   0.01754   0.01025  -0.0151  0.0489  1.0000  -3.3198   0.0000   0.2605
   7.500   0.8720   0.01882   0.01152  -0.0110  0.0466  1.0000  -3.5830   0.0000   0.2547
   8.000   0.9040   0.02003   0.01287  -0.0068  0.0450  1.0000  -3.8740   0.0000   0.2491
   8.500   0.9352   0.02113   0.01410  -0.0025  0.0430  1.0000  -4.1848   0.0000   0.2438
   9.000   0.9654   0.02238   0.01543   0.0018  0.0413  1.0000  -4.5044   0.0000   0.2387
   9.500   0.9964   0.02462   0.01778   0.0056  0.0394  1.0000  -4.8279   0.0000   0.2343
  10.000   1.0218   0.02596   0.01940   0.0108  0.0377  1.0000  -5.1468   0.0000   0.2287
  10.500   1.0476   0.02748   0.02109   0.0156  0.0359  1.0000  -5.5003   0.0000   0.2238
  11.000   1.0757   0.03057   0.02425   0.0191  0.0341  1.0000  -5.8806   0.0000   0.2204
  11.500   1.0868   0.03219   0.02633   0.0260  0.0326  1.0000  -6.1727   0.0000   0.2135
  12.000   1.1037   0.03418   0.02857   0.0312  0.0309  1.0000  -6.5174   0.0000   0.2085
  12.500   1.1201   0.03596   0.03040   0.0360  0.0297  1.0000  -6.8971   0.0000   0.2038
  13.000   1.1093   0.04029   0.03517   0.0429  0.0286  1.0000  -7.0377   0.0000   0.1965
  13.500   1.0850   0.04536   0.04080   0.0488  0.0277  1.0000  -7.0727   0.0000   0.1893
  14.000   1.0578   0.05183   0.04771   0.0514  0.0269  1.0000  -7.0796   0.0000   0.1846
  14.500   1.0286   0.05986   0.05610   0.0505  0.0263  1.0000  -7.0570   0.0000   0.1829
  15.000   0.5128   0.15173   0.14901   0.0122  0.0411  1.0000  -1.9114   0.0000   0.2120
  15.500   0.5327   0.15387   0.15118   0.0135  0.0399  1.0000  -2.1822   0.0000   0.2096
  16.000   0.4931   0.16278   0.16009   0.0069  0.0366  1.0000  -1.6755   0.0000   0.2216
  16.500   0.5036   0.16589   0.16321   0.0061  0.0347  1.0000  -1.7980   0.0000   0.2229
  17.000   0.5125   0.17065   0.16799   0.0055  0.0339  1.0000  -1.8675   0.0000   0.2239
  17.500   0.4956   0.17738   0.17472   0.0002  0.0306  1.0000  -1.5500   0.0000   0.2344
  18.000   0.5099   0.18063   0.17799  -0.0004  0.0294  1.0000  -1.7192   0.0000   0.2349
  18.500   0.5014   0.18766   0.18503  -0.0045  0.0281  1.0000  -1.4675   0.0000   0.2433
  19.000   0.5067   0.19244   0.18982  -0.0068  0.0258  1.0000  -1.4486   0.0000   0.2475
  19.500   0.5198   0.19610   0.19350  -0.0078  0.0249  1.0000  -1.6031   0.0000   0.2483
  20.000   0.5159   0.20289   0.20029  -0.0116  0.0240  1.0000  -1.3844   0.0000   0.2560
  20.500   0.5214   0.20805   0.20547  -0.0142  0.0222  1.0000  -1.3472   0.0000   0.2604
  21.000   0.5311   0.21209   0.20953  -0.0160  0.0212  1.0000  -1.4346   0.0000   0.2625
  21.500   0.5369   0.21760   0.21505  -0.0183  0.0208  1.0000  -1.4002   0.0000   0.2661
  22.000   0.5391   0.22376   0.22123  -0.0217  0.0191  1.0000  -1.2602   0.0000   0.2722
  22.500   0.5469   0.22837   0.22586  -0.0240  0.0181  1.0000  -1.2958   0.0000   0.2753
  23.000   0.5594   0.23280   0.23031  -0.0253  0.0176  1.0000  -1.4571   0.0000   0.2755
  23.500   0.5583   0.23951   0.23703  -0.0293  0.0167  1.0000  -1.1957   0.0000   0.2830
  24.000   0.5651   0.24467   0.24221  -0.0319  0.0156  1.0000  -1.1825   0.0000   0.2863
  24.500   0.5728   0.24928   0.24684  -0.0343  0.0149  1.0000  -1.2395   0.0000   0.2889
  25.000   0.5797   0.25458   0.25216  -0.0366  0.0146  1.0000  -1.2632   0.0000   0.2915
  25.500   0.5839   0.26099   0.25859  -0.0398  0.0136  1.0000  -1.1327   0.0000   0.2962
  26.000   0.5905   0.26609   0.26370  -0.0424  0.0128  1.0000  -1.1366   0.0000   0.2992
  26.500   0.5975   0.27075   0.26839  -0.0449  0.0123  1.0000  -1.1882   0.0000   0.3015
  27.000   0.6031   0.27643   0.27409  -0.0475  0.0121  1.0000  -1.1612   0.0000   0.3045
  27.500   0.6080   0.28273   0.28041  -0.0505  0.0113  1.0000  -1.0744   0.0000   0.3083
  28.000   0.6140   0.28800   0.28570  -0.0532  0.0106  1.0000  -1.0807   0.0000   0.3111
  28.500   0.6200   0.29285   0.29057  -0.0558  0.0102  1.0000  -1.1205   0.0000   0.3135
  29.000   0.6255   0.29813   0.29587  -0.0584  0.0100  1.0000  -1.1425   0.0000   0.3158
  29.500   0.6298   0.30470   0.30247  -0.0614  0.0096  1.0000  -1.0243   0.0000   0.3194
  30.000   0.6349   0.31023   0.30802  -0.0641  0.0089  1.0000  -1.0179   0.0000   0.3220
  30.500   0.6399   0.31535   0.31317  -0.0669  0.0084  1.0000  -1.0389   0.0000   0.3245


