xflr5 v6.33

 Calculated polar for: NACA 0012 v1

 1 1 Reynolds number fixed          Mach number fixed         

 xtrf =   1.000 (top)        1.000 (bottom)
 Mach =   0.000     Re =     0.700 e 6     Ncrit =   9.000

  alpha     CL        CD       CDp       Cm    Top Xtr Bot Xtr   Cpmin    Chinge    XCp    
 ------- -------- --------- --------- -------- ------- ------- -------- --------- ---------
 -26.500  -0.6545   0.28605   0.28429   0.0680  1.0000  0.0090  -1.2166   0.0000   0.3303
 -26.000  -0.6491   0.28052   0.27875   0.0654  1.0000  0.0098  -1.2242   0.0000   0.3279
 -24.500  -0.6330   0.26402   0.26221   0.0579  1.0000  0.0113  -1.2774   0.0000   0.3205
 -23.500  -0.9675   0.27330   0.27118   0.1072  1.0000  0.0116  -2.1707   0.0000   0.3310
 -19.500  -1.1023   0.14138   0.13868   0.0219  1.0000  0.0157  -8.3055   0.0000   0.2405
 -19.000  -1.1436   0.12402   0.12103   0.0106  1.0000  0.0159  -8.7719   0.0000   0.2307
 -18.500  -1.1775   0.10913   0.10587   0.0015  1.0000  0.0160  -9.0602   0.0000   0.2238
 -18.000  -1.2090   0.09534   0.09181  -0.0064  1.0000  0.0162  -9.2672   0.0000   0.2183
 -17.500  -1.2381   0.08260   0.07879  -0.0134  1.0000  0.0163  -9.4062   0.0000   0.2139
 -17.000  -1.2631   0.07113   0.06703  -0.0194  1.0000  0.0165  -9.4754   0.0000   0.2105
 -16.500  -1.2848   0.06127   0.05699  -0.0236  1.0000  0.0167  -9.4791   0.0000   0.2086
 -16.000  -1.2973   0.05279   0.04834  -0.0274  1.0000  0.0170  -9.3826   0.0000   0.2071
 -15.500  -1.3024   0.04564   0.04100  -0.0302  1.0000  0.0174  -9.2138   0.0000   0.2061
 -15.000  -1.3020   0.03974   0.03487  -0.0318  1.0000  0.0179  -8.9944   0.0000   0.2060
 -14.500  -1.2966   0.03498   0.02987  -0.0320  1.0000  0.0184  -8.7357   0.0000   0.2068
 -14.000  -1.2888   0.03108   0.02572  -0.0306  1.0000  0.0190  -8.4550   0.0000   0.2087
 -13.500  -1.2780   0.02798   0.02253  -0.0280  1.0000  0.0197  -8.1327   0.0000   0.2115
 -13.000  -1.2585   0.02583   0.02023  -0.0249  1.0000  0.0206  -7.7596   0.0000   0.2144
 -12.500  -1.2373   0.02396   0.01815  -0.0211  1.0000  0.0215  -7.3908   0.0000   0.2181
 -12.000  -1.2135   0.02215   0.01628  -0.0172  1.0000  0.0225  -7.0226   0.0000   0.2217
 -11.500  -1.1779   0.02081   0.01479  -0.0147  1.0000  0.0239  -6.6068   0.0000   0.2241
 -11.000  -1.1429   0.01933   0.01325  -0.0122  1.0000  0.0255  -6.1981   0.0000   0.2267
 -10.500  -1.1036   0.01810   0.01190  -0.0099  1.0000  0.0273  -5.7836   0.0000   0.2290
 -10.000  -1.0624   0.01702   0.01076  -0.0079  1.0000  0.0295  -5.3652   0.0000   0.2313
  -9.500  -1.0212   0.01597   0.00966  -0.0057  1.0000  0.0321  -4.9753   0.0000   0.2338
  -9.000  -0.9798   0.01502   0.00867  -0.0033  1.0000  0.0352  -4.5997   0.0000   0.2365
  -8.500  -0.9384   0.01419   0.00780  -0.0008  1.0000  0.0391  -4.2327   0.0000   0.2396
  -8.000  -0.8971   0.01340   0.00699   0.0017  1.0000  0.0439  -3.8853   0.0000   0.2430
  -7.500  -0.8559   0.01268   0.00629   0.0044  1.0000  0.0502  -3.5569   0.0000   0.2467
  -7.000  -0.8146   0.01202   0.00565   0.0071  1.0000  0.0585  -3.2384   0.0000   0.2508
  -6.500  -0.7732   0.01140   0.00508   0.0097  1.0000  0.0702  -2.9426   0.0000   0.2551
  -6.000  -0.7293   0.01082   0.00458   0.0117  0.9998  0.0874  -2.6511   0.0000   0.2591
  -5.000  -0.5868   0.00941   0.00358   0.0042  0.9911  0.1661  -1.9929   0.0000   0.2509
  -4.500  -0.5155   0.00872   0.00317   0.0005  0.9859  0.2245  -1.7050   0.0000   0.2450
  -4.000  -0.4432   0.00807   0.00280  -0.0033  0.9804  0.2898  -1.4440   0.0000   0.2367
  -3.500  -0.3765   0.00749   0.00248  -0.0057  0.9707  0.3541  -1.2225   0.0000   0.2292
  -3.000  -0.3168   0.00700   0.00221  -0.0064  0.9555  0.4151  -1.0380   0.0000   0.2243
  -2.500  -0.2626   0.00659   0.00199  -0.0057  0.9340  0.4732  -0.8850   0.0000   0.2229
  -2.000  -0.2101   0.00626   0.00181  -0.0046  0.9070  0.5297  -0.7552   0.0000   0.2230
  -1.500  -0.1578   0.00601   0.00166  -0.0034  0.8740  0.5854  -0.6455   0.0000   0.2235
  -1.000  -0.1053   0.00583   0.00155  -0.0022  0.8354  0.6397  -0.5541   0.0000   0.2239
  -0.500  -0.0526   0.00573   0.00148  -0.0011  0.7915  0.6928  -0.4779   0.0000   0.2239
   0.000   0.0000   0.00569   0.00146  -0.0000  0.7435  0.7436  -0.4137   0.0000   0.4179
   0.500   0.0526   0.00573   0.00148   0.0011  0.6928  0.7915  -0.4779   0.0000   0.2239
   1.000   0.1053   0.00583   0.00155   0.0022  0.6396  0.8354  -0.5541   0.0000   0.2239
   1.500   0.1578   0.00601   0.00166   0.0034  0.5854  0.8740  -0.6456   0.0000   0.2235
   2.000   0.2101   0.00626   0.00181   0.0046  0.5297  0.9070  -0.7552   0.0000   0.2230
   2.500   0.2626   0.00659   0.00199   0.0058  0.4732  0.9340  -0.8850   0.0000   0.2229
   3.000   0.3168   0.00700   0.00221   0.0065  0.4151  0.9555  -1.0380   0.0000   0.2243
   3.500   0.3765   0.00748   0.00248   0.0058  0.3541  0.9707  -1.2225   0.0000   0.2292
   4.000   0.4432   0.00807   0.00280   0.0034  0.2898  0.9804  -1.4440   0.0000   0.2367
   4.500   0.5155   0.00872   0.00316  -0.0004  0.2245  0.9859  -1.7051   0.0000   0.2450
   5.000   0.5868   0.00941   0.00358  -0.0041  0.1661  0.9911  -1.9929   0.0000   0.2510
   5.500   0.6577   0.01012   0.00406  -0.0078  0.1198  0.9960  -2.3081   0.0000   0.2555
   6.000   0.7293   0.01082   0.00458  -0.0116  0.0874  0.9998  -2.6512   0.0000   0.2592
   6.500   0.7731   0.01140   0.00508  -0.0094  0.0702  1.0000  -2.9423   0.0000   0.2551
   7.000   0.8146   0.01202   0.00565  -0.0068  0.0586  1.0000  -3.2381   0.0000   0.2508
   7.500   0.8558   0.01268   0.00629  -0.0041  0.0502  1.0000  -3.5567   0.0000   0.2467
   8.000   0.8971   0.01340   0.00699  -0.0014  0.0439  1.0000  -3.8851   0.0000   0.2430
   8.500   0.9383   0.01419   0.00780   0.0012  0.0391  1.0000  -4.2326   0.0000   0.2396
   9.000   0.9798   0.01502   0.00867   0.0037  0.0352  1.0000  -4.5997   0.0000   0.2365
   9.500   1.0212   0.01597   0.00966   0.0061  0.0321  1.0000  -4.9754   0.0000   0.2338
  10.000   1.0625   0.01702   0.01076   0.0083  0.0295  1.0000  -5.3655   0.0000   0.2313
  10.500   1.1037   0.01810   0.01190   0.0104  0.0273  1.0000  -5.7840   0.0000   0.2290
  11.000   1.1430   0.01933   0.01325   0.0127  0.0255  1.0000  -6.1988   0.0000   0.2267
  11.500   1.1781   0.02081   0.01479   0.0153  0.0239  1.0000  -6.6078   0.0000   0.2241
  12.000   1.2137   0.02215   0.01628   0.0178  0.0225  1.0000  -7.0237   0.0000   0.2217
  12.500   1.2376   0.02397   0.01816   0.0216  0.0215  1.0000  -7.3923   0.0000   0.2181
  13.000   1.2589   0.02583   0.02023   0.0255  0.0206  1.0000  -7.7621   0.0000   0.2145
  13.500   1.2785   0.02798   0.02252   0.0287  0.0197  1.0000  -8.1359   0.0000   0.2115
  14.000   1.2894   0.03108   0.02572   0.0313  0.0190  1.0000  -8.4579   0.0000   0.2088
  14.500   1.2974   0.03497   0.02986   0.0326  0.0184  1.0000  -8.7402   0.0000   0.2069
  15.000   1.3029   0.03972   0.03486   0.0325  0.0179  1.0000  -8.9997   0.0000   0.2061
  15.500   1.3035   0.04562   0.04097   0.0309  0.0174  1.0000  -9.2203   0.0000   0.2063
  16.000   1.2985   0.05276   0.04831   0.0281  0.0170  1.0000  -9.3900   0.0000   0.2072
  16.500   1.2860   0.06124   0.05696   0.0243  0.0167  1.0000  -9.4867   0.0000   0.2088
  17.000   1.2641   0.07112   0.06703   0.0201  0.0165  1.0000  -9.4808   0.0000   0.2106
  17.500   1.2392   0.08260   0.07879   0.0140  0.0163  1.0000  -9.4125   0.0000   0.2141
  18.000   1.2102   0.09535   0.09182   0.0069  0.0162  1.0000  -9.2729   0.0000   0.2185
  18.500   1.1785   0.10917   0.10591  -0.0010  0.0160  1.0000  -9.0651   0.0000   0.2240
  19.000   1.1446   0.12410   0.12111  -0.0101  0.0159  1.0000  -8.7758   0.0000   0.2309
  19.500   1.1031   0.14153   0.13884  -0.0216  0.0157  1.0000  -8.3067   0.0000   0.2407


