xflr5 v6.33

 Calculated polar for: NACA 0012 v1

 1 1 Reynolds number fixed          Mach number fixed         

 xtrf =   1.000 (top)        1.000 (bottom)
 Mach =   0.000     Re =     2.600 e 6     Ncrit =   9.000

  alpha     CL        CD       CDp       Cm    Top Xtr Bot Xtr   Cpmin    Chinge    XCp    
 ------- -------- --------- --------- -------- ------- ------- -------- --------- ---------
 -25.500  -1.1235   0.24532   0.24407   0.1041  1.0000  0.0071  -8.1190   0.0000   0.3007
 -25.000  -1.1238   0.23606   0.23476   0.0960  1.0000  0.0075  -8.3724   0.0000   0.2944
 -24.500  -1.1286   0.22553   0.22417   0.0873  1.0000  0.0078  -8.6930   0.0000   0.2871
 -24.000  -1.1350   0.21485   0.21339   0.0785  1.0000  0.0081  -8.9866   0.0000   0.2798
 -23.500  -1.1428   0.20415   0.20259   0.0697  1.0000  0.0083  -9.2492   0.0000   0.2726
 -23.000  -1.1519   0.19334   0.19169   0.0611  1.0000  0.0085  -9.4817   0.0000   0.2656
 -22.500  -1.1691   0.18098   0.17923   0.0514  1.0000  0.0087  -9.8091   0.0000   0.2575
 -22.000  -1.2032   0.16521   0.16331   0.0396  1.0000  0.0089  -10.3445   0.0000   0.2473
 -21.500  -1.2603   0.14542   0.14331   0.0256  1.0000  0.0089  -11.1110   0.0000   0.2356
 -21.000  -1.3414   0.12231   0.11990   0.0107  1.0000  0.0089  -12.0383   0.0000   0.2244
 -20.500  -1.4280   0.09966   0.09693  -0.0022  1.0000  0.0087  -12.8685   0.0000   0.2161
 -20.000  -1.5041   0.07997   0.07693  -0.0125  1.0000  0.0086  -13.4680   0.0000   0.2106
 -19.500  -1.5633   0.06388   0.06055  -0.0206  1.0000  0.0086  -13.8223   0.0000   0.2072
 -19.000  -1.6032   0.05150   0.04791  -0.0264  1.0000  0.0087  -13.9404   0.0000   0.2053
 -18.500  -1.6240   0.04256   0.03875  -0.0298  1.0000  0.0089  -13.8427   0.0000   0.2047
 -18.000  -1.6296   0.03624   0.03226  -0.0313  1.0000  0.0091  -13.5842   0.0000   0.2052
 -17.500  -1.6254   0.03164   0.02751  -0.0312  1.0000  0.0094  -13.2267   0.0000   0.2064
 -17.000  -1.6145   0.02820   0.02394  -0.0300  1.0000  0.0096  -12.8165   0.0000   0.2081
 -16.500  -1.5988   0.02556   0.02117  -0.0279  1.0000  0.0099  -12.3771   0.0000   0.2103
 -16.000  -1.5787   0.02352   0.01902  -0.0252  1.0000  0.0101  -11.9072   0.0000   0.2129
 -15.500  -1.5559   0.02186   0.01725  -0.0220  1.0000  0.0103  -11.4222   0.0000   0.2157
 -15.000  -1.5363   0.02015   0.01544  -0.0177  1.0000  0.0108  -10.9715   0.0000   0.2192
 -14.500  -1.5057   0.01896   0.01418  -0.0145  1.0000  0.0113  -10.4461   0.0000   0.2220
 -14.000  -1.4673   0.01794   0.01310  -0.0124  1.0000  0.0118  -9.8818   0.0000   0.2241
 -13.500  -1.4261   0.01703   0.01213  -0.0106  1.0000  0.0122  -9.3141   0.0000   0.2259
 -13.000  -1.3857   0.01593   0.01097  -0.0087  1.0000  0.0131  -8.7716   0.0000   0.2279
 -12.500  -1.3413   0.01511   0.01011  -0.0073  1.0000  0.0138  -8.2130   0.0000   0.2296
 -12.000  -1.2955   0.01435   0.00930  -0.0060  1.0000  0.0144  -7.6836   0.0000   0.2312
 -11.500  -1.2500   0.01355   0.00848  -0.0046  1.0000  0.0156  -7.1737   0.0000   0.2329
 -11.000  -1.2025   0.01295   0.00785  -0.0033  1.0000  0.0165  -6.6654   0.0000   0.2345
 -10.500  -1.1575   0.01224   0.00712  -0.0016  1.0000  0.0180  -6.1875   0.0000   0.2366
 -10.000  -1.1125   0.01169   0.00655   0.0003  1.0000  0.0192  -5.7222   0.0000   0.2390
  -9.500  -1.0691   0.01114   0.00600   0.0026  1.0000  0.0210  -5.2897   0.0000   0.2418
  -9.000  -1.0269   0.01063   0.00549   0.0052  1.0000  0.0231  -4.8845   0.0000   0.2450
  -8.000  -0.9007   0.00958   0.00448   0.0014  0.9968  0.0296  -3.9626   0.0000   0.2427
  -7.500  -0.8361   0.00908   0.00402  -0.0008  0.9947  0.0344  -3.5419   0.0000   0.2407
  -7.000  -0.7709   0.00860   0.00359  -0.0030  0.9924  0.0411  -3.1401   0.0000   0.2381
  -6.500  -0.7094   0.00816   0.00321  -0.0044  0.9867  0.0498  -2.7832   0.0000   0.2363
  -6.000  -0.6525   0.00774   0.00286  -0.0046  0.9767  0.0612  -2.4607   0.0000   0.2358
  -5.500  -0.5994   0.00736   0.00254  -0.0040  0.9616  0.0765  -2.1715   0.0000   0.2367
  -5.000  -0.5471   0.00699   0.00223  -0.0031  0.9421  0.0970  -1.9083   0.0000   0.2380
  -4.500  -0.4942   0.00664   0.00195  -0.0024  0.9179  0.1241  -1.6646   0.0000   0.2392
  -4.000  -0.4406   0.00631   0.00168  -0.0018  0.8888  0.1583  -1.4416   0.0000   0.2402
  -3.500  -0.3867   0.00602   0.00145  -0.0013  0.8545  0.1987  -1.2402   0.0000   0.2412
  -3.000  -0.3323   0.00577   0.00126  -0.0009  0.8156  0.2436  -1.0615   0.0000   0.2420
  -2.500  -0.2776   0.00556   0.00110  -0.0006  0.7727  0.2912  -0.9040   0.0000   0.2427
  -2.000  -0.2225   0.00540   0.00098  -0.0004  0.7274  0.3402  -0.7685   0.0000   0.2432
  -1.500  -0.1672   0.00528   0.00088  -0.0003  0.6805  0.3894  -0.6538   0.0000   0.2437
  -1.000  -0.1116   0.00520   0.00082  -0.0002  0.6328  0.4389  -0.5584   0.0000   0.2440
  -0.500  -0.0558   0.00515   0.00078  -0.0001  0.5848  0.4878  -0.4794   0.0000   0.2442
   0.000  -0.0000   0.00513   0.00077  -0.0000  0.5364  0.5365  -0.4132   0.0000   0.4602
   0.500   0.0558   0.00515   0.00078   0.0001  0.4878  0.5848  -0.4794   0.0000   0.2442
   1.000   0.1116   0.00520   0.00082   0.0002  0.4389  0.6328  -0.5584   0.0000   0.2440
   1.500   0.1672   0.00528   0.00088   0.0003  0.3894  0.6805  -0.6538   0.0000   0.2437
   2.000   0.2225   0.00540   0.00098   0.0004  0.3402  0.7274  -0.7685   0.0000   0.2432
   2.500   0.2776   0.00556   0.00110   0.0007  0.2912  0.7727  -0.9040   0.0000   0.2427
   3.000   0.3324   0.00577   0.00126   0.0010  0.2436  0.8156  -1.0615   0.0000   0.2420
   3.500   0.3867   0.00602   0.00145   0.0014  0.1987  0.8545  -1.2402   0.0000   0.2412
   4.000   0.4407   0.00631   0.00168   0.0019  0.1583  0.8888  -1.4416   0.0000   0.2403
   4.500   0.4942   0.00664   0.00195   0.0025  0.1241  0.9179  -1.6646   0.0000   0.2392
   5.000   0.5471   0.00699   0.00223   0.0032  0.0970  0.9421  -1.9084   0.0000   0.2380
   5.500   0.5995   0.00736   0.00254   0.0041  0.0765  0.9616  -2.1716   0.0000   0.2367
   6.000   0.6525   0.00774   0.00286   0.0048  0.0612  0.9767  -2.4608   0.0000   0.2358
   6.500   0.7095   0.00816   0.00321   0.0046  0.0498  0.9867  -2.7833   0.0000   0.2363
   7.000   0.7709   0.00860   0.00359   0.0033  0.0411  0.9924  -3.1402   0.0000   0.2381
   7.500   0.8361   0.00908   0.00402   0.0010  0.0344  0.9947  -3.5420   0.0000   0.2407
   8.000   0.9008   0.00958   0.00448  -0.0011  0.0296  0.9968  -3.9628   0.0000   0.2427
   8.500   0.9653   0.01009   0.00497  -0.0033  0.0259  0.9986  -4.4160   0.0000   0.2443
   9.000   1.0268   0.01063   0.00549  -0.0048  0.0231  1.0000  -4.8841   0.0000   0.2450
   9.500   1.0690   0.01114   0.00600  -0.0022  0.0210  1.0000  -5.2893   0.0000   0.2418
  10.000   1.1125   0.01168   0.00655   0.0002  0.0192  1.0000  -5.7220   0.0000   0.2390
  10.500   1.1575   0.01224   0.00712   0.0021  0.0180  1.0000  -6.1874   0.0000   0.2366
  11.000   1.2026   0.01295   0.00785   0.0039  0.0165  1.0000  -6.6656   0.0000   0.2345
  11.500   1.2501   0.01355   0.00848   0.0052  0.0156  1.0000  -7.1741   0.0000   0.2329
  12.000   1.2956   0.01435   0.00930   0.0066  0.0144  1.0000  -7.6842   0.0000   0.2312
  12.500   1.3414   0.01511   0.01011   0.0080  0.0138  1.0000  -8.2139   0.0000   0.2296
  13.000   1.3859   0.01593   0.01097   0.0094  0.0131  1.0000  -8.7726   0.0000   0.2280
  13.500   1.4263   0.01704   0.01213   0.0114  0.0122  1.0000  -9.3153   0.0000   0.2260
  14.000   1.4676   0.01794   0.01311   0.0132  0.0118  1.0000  -9.8835   0.0000   0.2241
  14.500   1.5060   0.01896   0.01418   0.0153  0.0113  1.0000  -10.4482   0.0000   0.2221
  15.000   1.5368   0.02015   0.01544   0.0185  0.0108  1.0000  -10.9747   0.0000   0.2193
  15.500   1.5564   0.02186   0.01725   0.0229  0.0103  1.0000  -11.4256   0.0000   0.2157
  16.000   1.5795   0.02351   0.01901   0.0261  0.0101  1.0000  -11.9122   0.0000   0.2129
  16.500   1.5996   0.02555   0.02116   0.0288  0.0099  1.0000  -12.3830   0.0000   0.2104
  17.000   1.6155   0.02818   0.02392   0.0310  0.0096  1.0000  -12.8234   0.0000   0.2082
  17.500   1.6265   0.03162   0.02748   0.0322  0.0094  1.0000  -13.2352   0.0000   0.2065
  18.000   1.6309   0.03621   0.03222   0.0323  0.0091  1.0000  -13.5940   0.0000   0.2053
  18.500   1.6254   0.04252   0.03871   0.0309  0.0089  1.0000  -13.8536   0.0000   0.2048
  19.000   1.6047   0.05147   0.04787   0.0274  0.0087  1.0000  -13.9515   0.0000   0.2054
  19.500   1.5647   0.06386   0.06053   0.0215  0.0086  1.0000  -13.8326   0.0000   0.2073
  20.000   1.5055   0.07997   0.07693   0.0134  0.0086  1.0000  -13.4778   0.0000   0.2108
  20.500   1.4294   0.09967   0.09694   0.0030  0.0087  1.0000  -12.8781   0.0000   0.2162
  21.000   1.3427   0.12233   0.11992  -0.0100  0.0088  1.0000  -12.0473   0.0000   0.2245
  21.500   1.2615   0.14552   0.14341  -0.0250  0.0089  1.0000  -11.1175   0.0000   0.2358
  22.000   1.2042   0.16535   0.16345  -0.0391  0.0089  1.0000  -10.3494   0.0000   0.2475
  22.500   1.1701   0.18118   0.17942  -0.0510  0.0087  1.0000  -9.8137   0.0000   0.2577
  23.000   1.1531   0.19356   0.19190  -0.0607  0.0085  1.0000  -9.4881   0.0000   0.2658
  23.500   1.1440   0.20443   0.20288  -0.0694  0.0083  1.0000  -9.2551   0.0000   0.2728
  24.000   1.1363   0.21523   0.21377  -0.0782  0.0081  1.0000  -8.9924   0.0000   0.2800
  24.500   1.1299   0.22591   0.22454  -0.0871  0.0078  1.0000  -8.6988   0.0000   0.2873
  25.000   1.1252   0.23647   0.23517  -0.0959  0.0075  1.0000  -8.3786   0.0000   0.2946
  25.500   1.1250   0.24590   0.24465  -0.1039  0.0071  1.0000  -8.1273   0.0000   0.3008


