xflr5 v6.33

 Calculated polar for: NACA 0012-64

 1 1 Reynolds number fixed          Mach number fixed         

 xtrf =   1.000 (top)        1.000 (bottom)
 Mach =   0.000     Re =     1.500 e 6     Ncrit =   9.000

  alpha     CL        CD       CDp       Cm    Top Xtr Bot Xtr   Cpmin    Chinge    XCp    
 ------- -------- --------- --------- -------- ------- ------- -------- --------- ---------
 -25.000  -0.5841   0.25350   0.25224   0.0384  1.0000  0.0056  -1.3540   0.0000   0.2939
 -24.500  -0.5777   0.24813   0.24686   0.0358  1.0000  0.0062  -1.3621   0.0000   0.2906
 -22.000  -0.9931   0.19408   0.19240   0.0357  1.0000  0.0100  -8.2704   0.0000   0.2516
 -21.500  -1.0168   0.17899   0.17726   0.0257  1.0000  0.0108  -8.8075   0.0000   0.2417
 -21.000  -1.0871   0.15398   0.15204   0.0098  1.0000  0.0110  -10.0405   0.0000   0.2261
 -20.500  -1.2334   0.11685   0.11447  -0.0119  1.0000  0.0104  -12.0872   0.0000   0.2083
 -20.000  -1.3701   0.08431   0.08143  -0.0296  1.0000  0.0099  -13.6406   0.0000   0.1976
 -19.500  -1.4376   0.06563   0.06239  -0.0398  1.0000  0.0099  -14.1681   0.0000   0.1931
 -19.000  -1.4669   0.05472   0.05120  -0.0447  1.0000  0.0100  -14.1857   0.0000   0.1918
 -18.500  -1.4907   0.04588   0.04210  -0.0472  1.0000  0.0103  -14.1100   0.0000   0.1920
 -18.000  -1.5013   0.03959   0.03562  -0.0473  1.0000  0.0108  -13.8737   0.0000   0.1934
 -17.500  -1.4996   0.03512   0.03098  -0.0463  1.0000  0.0113  -13.5045   0.0000   0.1953
 -17.000  -1.4901   0.03169   0.02739  -0.0445  1.0000  0.0118  -13.0624   0.0000   0.1974
 -16.500  -1.4774   0.02878   0.02431  -0.0422  1.0000  0.0124  -12.5957   0.0000   0.1998
 -16.000  -1.4612   0.02631   0.02174  -0.0394  1.0000  0.0133  -12.1008   0.0000   0.2024
 -15.500  -1.4376   0.02449   0.01981  -0.0368  1.0000  0.0142  -11.5698   0.0000   0.2048
 -15.000  -1.4132   0.02282   0.01801  -0.0338  1.0000  0.0151  -11.0436   0.0000   0.2074
 -14.500  -1.3842   0.02149   0.01664  -0.0310  1.0000  0.0163  -10.4858   0.0000   0.2099
 -14.000  -1.3512   0.02049   0.01555  -0.0285  1.0000  0.0173  -9.9103   0.0000   0.2121
 -13.500  -1.3211   0.01936   0.01433  -0.0252  1.0000  0.0183  -9.3710   0.0000   0.2150
 -13.000  -1.2859   0.01868   0.01363  -0.0223  1.0000  0.0195  -8.7991   0.0000   0.2175
 -12.500  -1.2529   0.01817   0.01307  -0.0187  1.0000  0.0205  -8.2553   0.0000   0.2207
 -12.000  -1.2263   0.01752   0.01233  -0.0137  1.0000  0.0212  -7.7703   0.0000   0.2252
 -11.500  -1.2048   0.01673   0.01151  -0.0077  1.0000  0.0222  -7.3272   0.0000   0.2308
 -11.000  -1.1788   0.01628   0.01102  -0.0023  1.0000  0.0231  -6.8636   0.0000   0.2359
 -10.500  -1.1291   0.01567   0.01035  -0.0019  0.9988  0.0241  -6.2902   0.0000   0.2369
 -10.000  -1.0701   0.01495   0.00956  -0.0035  0.9969  0.0250  -5.6999   0.0000   0.2359
  -9.500  -1.0120   0.01393   0.00850  -0.0051  0.9953  0.0267  -5.1828   0.0000   0.2348
  -9.000  -0.9538   0.01325   0.00779  -0.0064  0.9924  0.0279  -4.7021   0.0000   0.2337
  -8.500  -0.8919   0.01271   0.00722  -0.0083  0.9900  0.0289  -4.2248   0.0000   0.2316
  -8.000  -0.8311   0.01173   0.00618  -0.0103  0.9882  0.0306  -3.7979   0.0000   0.2291
  -7.500  -0.7691   0.01110   0.00555  -0.0122  0.9858  0.0322  -3.4016   0.0000   0.2261
  -7.000  -0.7104   0.01055   0.00497  -0.0133  0.9814  0.0335  -3.0673   0.0000   0.2237
  -6.500  -0.6540   0.00998   0.00437  -0.0138  0.9761  0.0350  -2.7814   0.0000   0.2217
  -6.000  -0.6011   0.00946   0.00385  -0.0134  0.9690  0.0376  -2.5266   0.0000   0.2209
  -5.500  -0.5509   0.00908   0.00344  -0.0123  0.9598  0.0404  -2.2828   0.0000   0.2213
  -5.000  -0.5013   0.00861   0.00302  -0.0110  0.9497  0.0495  -2.0504   0.0000   0.2218
  -4.500  -0.4514   0.00812   0.00267  -0.0099  0.9392  0.0762  -1.8218   0.0000   0.2221
  -4.000  -0.4000   0.00772   0.00236  -0.0091  0.9285  0.1027  -1.6019   0.0000   0.2216
  -3.500  -0.3495   0.00722   0.00206  -0.0082  0.9164  0.1532  -1.3987   0.0000   0.2213
  -3.000  -0.2987   0.00673   0.00179  -0.0073  0.9041  0.2179  -1.2020   0.0000   0.2203
  -2.500  -0.2503   0.00603   0.00151  -0.0061  0.8906  0.3333  -1.0275   0.0000   0.2208
  -2.000  -0.2055   0.00512   0.00122  -0.0041  0.8761  0.5139  -0.8673   0.0000   0.2252
  -1.500  -0.1566   0.00460   0.00107  -0.0027  0.8612  0.6279  -0.7061   0.0000   0.2280
  -1.000  -0.1050   0.00436   0.00098  -0.0018  0.8405  0.6934  -0.5473   0.0000   0.2287
   0.000  -0.0000   0.00421   0.00091   0.0000  0.7808  0.7808  -0.3380   0.0000   0.5510
   0.500   0.0530   0.00424   0.00093   0.0008  0.7456  0.8123  -0.4258   0.0000   0.2312
   1.000   0.1050   0.00436   0.00098   0.0018  0.6934  0.8405  -0.5473   0.0000   0.2287
   1.500   0.1567   0.00460   0.00107   0.0027  0.6279  0.8612  -0.7061   0.0000   0.2280
   2.000   0.2055   0.00512   0.00122   0.0041  0.5139  0.8761  -0.8673   0.0000   0.2252
   2.500   0.2503   0.00603   0.00151   0.0061  0.3332  0.8906  -1.0276   0.0000   0.2209
   3.000   0.2987   0.00673   0.00179   0.0073  0.2179  0.9041  -1.2020   0.0000   0.2204
   3.500   0.3495   0.00722   0.00206   0.0082  0.1532  0.9164  -1.3988   0.0000   0.2213
   4.000   0.4000   0.00772   0.00236   0.0091  0.1027  0.9285  -1.6019   0.0000   0.2216
   4.500   0.4514   0.00812   0.00267   0.0099  0.0761  0.9392  -1.8219   0.0000   0.2222
   5.000   0.5013   0.00861   0.00302   0.0110  0.0495  0.9497  -2.0506   0.0000   0.2219
   5.500   0.5510   0.00908   0.00344   0.0122  0.0404  0.9598  -2.2830   0.0000   0.2213
   6.000   0.6012   0.00946   0.00385   0.0133  0.0376  0.9690  -2.5268   0.0000   0.2210
   6.500   0.6541   0.00998   0.00437   0.0138  0.0350  0.9761  -2.7816   0.0000   0.2217
   7.000   0.7105   0.01055   0.00497   0.0133  0.0335  0.9814  -3.0675   0.0000   0.2237
   7.500   0.7691   0.01110   0.00555   0.0122  0.0322  0.9859  -3.4017   0.0000   0.2261
   8.000   0.8312   0.01173   0.00618   0.0102  0.0306  0.9882  -3.7983   0.0000   0.2292
   8.500   0.8920   0.01271   0.00722   0.0083  0.0289  0.9901  -4.2252   0.0000   0.2317
   9.000   0.9539   0.01325   0.00779   0.0063  0.0279  0.9924  -4.7026   0.0000   0.2338
   9.500   1.0122   0.01393   0.00850   0.0050  0.0267  0.9953  -5.1836   0.0000   0.2348
  10.000   1.0702   0.01496   0.00956   0.0034  0.0249  0.9969  -5.7006   0.0000   0.2360
  10.500   1.1293   0.01567   0.01035   0.0018  0.0241  0.9988  -6.2913   0.0000   0.2369
  11.000   1.1787   0.01628   0.01102   0.0023  0.0231  1.0000  -6.8629   0.0000   0.2359
  11.500   1.2047   0.01673   0.01150   0.0077  0.0222  1.0000  -7.3268   0.0000   0.2308
  12.000   1.2264   0.01752   0.01233   0.0137  0.0212  1.0000  -7.7706   0.0000   0.2253
  12.500   1.2533   0.01816   0.01306   0.0186  0.0205  1.0000  -8.2577   0.0000   0.2208
  13.000   1.2865   0.01867   0.01363   0.0222  0.0194  1.0000  -8.8026   0.0000   0.2176
  13.500   1.3217   0.01936   0.01433   0.0251  0.0183  1.0000  -9.3750   0.0000   0.2151
  14.000   1.3520   0.02048   0.01554   0.0283  0.0173  1.0000  -9.9153   0.0000   0.2122
  14.500   1.3851   0.02149   0.01663   0.0309  0.0163  1.0000  -10.4916   0.0000   0.2100
  15.000   1.4141   0.02282   0.01801   0.0337  0.0151  1.0000  -11.0498   0.0000   0.2076
  15.500   1.4387   0.02448   0.01980   0.0366  0.0142  1.0000  -11.5776   0.0000   0.2050
  16.000   1.4624   0.02629   0.02172   0.0392  0.0133  1.0000  -12.1097   0.0000   0.2026
  16.500   1.4786   0.02877   0.02430   0.0420  0.0124  1.0000  -12.6048   0.0000   0.2000
  17.000   1.4917   0.03167   0.02736   0.0443  0.0118  1.0000  -13.0747   0.0000   0.1976
  17.500   1.5013   0.03509   0.03095   0.0460  0.0113  1.0000  -13.5183   0.0000   0.1955
  18.000   1.5031   0.03955   0.03558   0.0471  0.0108  1.0000  -13.8886   0.0000   0.1937
  18.500   1.4925   0.04585   0.04207   0.0469  0.0103  1.0000  -14.1242   0.0000   0.1923
  19.000   1.4696   0.05460   0.05108   0.0444  0.0100  1.0000  -14.2088   0.0000   0.1920
  19.500   1.4405   0.06548   0.06223   0.0395  0.0098  1.0000  -14.1946   0.0000   0.1933
  20.000   1.3737   0.08404   0.08116   0.0294  0.0099  1.0000  -13.6763   0.0000   0.1979
  20.500   1.2347   0.11705   0.11467   0.0114  0.0104  1.0000  -12.0912   0.0000   0.2087
  21.000   1.0883   0.15426   0.15232  -0.0103  0.0110  1.0000  -10.0422   0.0000   0.2265
  21.500   1.0182   0.17933   0.17760  -0.0261  0.0107  1.0000  -8.8107   0.0000   0.2421
  22.000   0.9948   0.19440   0.19273  -0.0361  0.0100  1.0000  -8.2799   0.0000   0.2519
  27.000   0.6069   0.27516   0.27394  -0.0490  0.0043  1.0000  -1.2503   0.0000   0.3063
  27.500   0.6133   0.27994   0.27874  -0.0518  0.0041  1.0000  -1.3022   0.0000   0.3090
  28.000   0.6197   0.28428   0.28309  -0.0545  0.0040  1.0000  -1.3895   0.0000   0.3115
  28.500   0.6239   0.29072   0.28954  -0.0572  0.0039  1.0000  -1.2937   0.0000   0.3147
  29.000   0.6285   0.29754   0.29637  -0.0599  0.0034  1.0000  -1.1601   0.0000   0.3177
  29.500   0.6339   0.30265   0.30149  -0.0627  0.0032  1.0000  -1.1743   0.0000   0.3204
  30.000   0.6392   0.30737   0.30622  -0.0656  0.0030  1.0000  -1.2329   0.0000   0.3229
  30.500   0.6444   0.31165   0.31052  -0.0684  0.0030  1.0000  -1.3237   0.0000   0.3251
  31.000   0.6477   0.31948   0.31836  -0.0710  0.0028  1.0000  -1.1294   0.0000   0.3283
  31.500   0.6520   0.32527   0.32417  -0.0738  0.0025  1.0000  -1.0916   0.0000   0.3308
  32.000   0.6563   0.33038   0.32929  -0.0767  0.0023  1.0000  -1.1079   0.0000   0.3332
  32.500   0.6604   0.33513   0.33406  -0.0796  0.0022  1.0000  -1.1583   0.0000   0.3356
  33.000   0.6643   0.33946   0.33840  -0.0825  0.0021  1.0000  -1.2358   0.0000   0.3379
  33.500   0.6671   0.34629   0.34523  -0.0852  0.0021  1.0000  -1.1276   0.0000   0.3405
  34.000   0.6703   0.35274   0.35170  -0.0878  0.0018  1.0000  -1.0374   0.0000   0.3429
  34.500   0.6734   0.35790   0.35688  -0.0907  0.0016  1.0000  -1.0341   0.0000   0.3452
  35.000   0.6763   0.36273   0.36172  -0.0936  0.0015  1.0000  -1.0508   0.0000   0.3474
  35.500   0.6789   0.36713   0.36614  -0.0966  0.0014  1.0000  -1.1024   0.0000   0.3497


