xflr5 v6.33

 Calculated polar for: NACA 0012 v1

 1 1 Reynolds number fixed          Mach number fixed         

 xtrf =   1.000 (top)        1.000 (bottom)
 Mach =   0.000     Re =     1.000 e 6     Ncrit =   9.000

  alpha     CL        CD       CDp       Cm    Top Xtr Bot Xtr   Cpmin    Chinge    XCp    
 ------- -------- --------- --------- -------- ------- ------- -------- --------- ---------
 -21.500  -1.0925   0.18006   0.17793   0.0500  1.0000  0.0126  -8.3040   0.0000   0.2623
 -21.000  -1.1150   0.16596   0.16368   0.0398  1.0000  0.0128  -8.7042   0.0000   0.2530
 -20.500  -1.1358   0.15286   0.15042   0.0306  1.0000  0.0130  -8.9916   0.0000   0.2451
 -20.000  -1.1584   0.13979   0.13718   0.0218  1.0000  0.0132  -9.2387   0.0000   0.2381
 -19.500  -1.1842   0.12650   0.12371   0.0135  1.0000  0.0134  -9.4667   0.0000   0.2317
 -19.000  -1.2144   0.11281   0.10983   0.0056  1.0000  0.0135  -9.6955   0.0000   0.2259
 -18.500  -1.2494   0.09873   0.09554  -0.0021  1.0000  0.0137  -9.9290   0.0000   0.2208
 -18.000  -1.2871   0.08472   0.08129  -0.0094  1.0000  0.0138  -10.1430   0.0000   0.2163
 -17.500  -1.3226   0.07158   0.06790  -0.0160  1.0000  0.0139  -10.2975   0.0000   0.2126
 -17.000  -1.3497   0.06020   0.05625  -0.0217  1.0000  0.0140  -10.3464   0.0000   0.2099
 -16.500  -1.3643   0.05104   0.04683  -0.0261  1.0000  0.0142  -10.2638   0.0000   0.2081
 -16.000  -1.3854   0.04182   0.03738  -0.0298  1.0000  0.0145  -10.2187   0.0000   0.2069
 -15.500  -1.3891   0.03568   0.03105  -0.0311  1.0000  0.0149  -10.0040   0.0000   0.2072
 -15.000  -1.3816   0.03148   0.02669  -0.0307  1.0000  0.0153  -9.6925   0.0000   0.2084
 -14.500  -1.3688   0.02832   0.02336  -0.0289  1.0000  0.0158  -9.3414   0.0000   0.2105
 -14.000  -1.3505   0.02595   0.02079  -0.0263  1.0000  0.0163  -8.9560   0.0000   0.2131
 -13.500  -1.3381   0.02352   0.01822  -0.0220  1.0000  0.0169  -8.6107   0.0000   0.2170
 -13.000  -1.3143   0.02197   0.01658  -0.0181  1.0000  0.0177  -8.1875   0.0000   0.2205
 -12.500  -1.2797   0.02073   0.01520  -0.0156  1.0000  0.0186  -7.7146   0.0000   0.2229
 -12.000  -1.2464   0.01920   0.01358  -0.0129  1.0000  0.0197  -7.2849   0.0000   0.2255
 -11.500  -1.2061   0.01811   0.01240  -0.0109  1.0000  0.0209  -6.8254   0.0000   0.2275
 -11.000  -1.1662   0.01691   0.01113  -0.0088  1.0000  0.0223  -6.3832   0.0000   0.2298
 -10.500  -1.1220   0.01607   0.01020  -0.0072  1.0000  0.0240  -5.9259   0.0000   0.2316
 -10.000  -1.0797   0.01507   0.00916  -0.0052  1.0000  0.0259  -5.4929   0.0000   0.2339
  -9.500  -1.0368   0.01421   0.00826  -0.0031  1.0000  0.0282  -5.0860   0.0000   0.2363
  -9.000  -0.9942   0.01346   0.00748  -0.0008  1.0000  0.0310  -4.6942   0.0000   0.2391
  -8.500  -0.9518   0.01277   0.00677   0.0016  1.0000  0.0343  -4.3152   0.0000   0.2422
  -8.000  -0.9098   0.01214   0.00613   0.0041  1.0000  0.0386  -3.9545   0.0000   0.2456
  -7.500  -0.8680   0.01156   0.00555   0.0068  1.0000  0.0439  -3.6185   0.0000   0.2494
  -6.500  -0.7629   0.01040   0.00449   0.0074  0.9976  0.0630  -2.9240   0.0000   0.2523
  -6.000  -0.6937   0.00978   0.00398   0.0042  0.9944  0.0819  -2.5595   0.0000   0.2490
  -5.500  -0.6247   0.00915   0.00350   0.0010  0.9904  0.1100  -2.2282   0.0000   0.2449
  -5.000  -0.5555   0.00850   0.00306  -0.0022  0.9861  0.1498  -1.9230   0.0000   0.2397
  -4.500  -0.4877   0.00787   0.00266  -0.0050  0.9804  0.1998  -1.6484   0.0000   0.2336
  -4.000  -0.4268   0.00730   0.00232  -0.0062  0.9693  0.2545  -1.4138   0.0000   0.2296
  -3.500  -0.3723   0.00682   0.00204  -0.0058  0.9519  0.3096  -1.2159   0.0000   0.2289
  -3.000  -0.3199   0.00641   0.00180  -0.0048  0.9293  0.3651  -1.0425   0.0000   0.2296
  -2.500  -0.2674   0.00608   0.00160  -0.0038  0.9015  0.4203  -0.8911   0.0000   0.2305
  -2.000  -0.2144   0.00582   0.00144  -0.0029  0.8682  0.4753  -0.7598   0.0000   0.2313
  -1.500  -0.1610   0.00563   0.00131  -0.0021  0.8291  0.5297  -0.6485   0.0000   0.2318
  -1.000  -0.1074   0.00550   0.00122  -0.0014  0.7854  0.5835  -0.5557   0.0000   0.2322
  -0.500  -0.0537   0.00543   0.00116  -0.0007  0.7380  0.6363  -0.4785   0.0000   0.2324
   0.000   0.0000   0.00541   0.00115  -0.0000  0.6879  0.6879  -0.4136   0.0000   0.4680
   0.500   0.0537   0.00543   0.00116   0.0007  0.6363  0.7380  -0.4785   0.0000   0.2324
   1.000   0.1074   0.00550   0.00122   0.0014  0.5835  0.7854  -0.5557   0.0000   0.2322
   1.500   0.1610   0.00563   0.00131   0.0022  0.5297  0.8291  -0.6485   0.0000   0.2318
   2.000   0.2145   0.00582   0.00144   0.0029  0.4753  0.8682  -0.7598   0.0000   0.2313
   2.500   0.2674   0.00608   0.00160   0.0038  0.4203  0.9015  -0.8912   0.0000   0.2305
   3.000   0.3199   0.00641   0.00180   0.0049  0.3650  0.9293  -1.0426   0.0000   0.2296
   3.500   0.3723   0.00682   0.00204   0.0058  0.3096  0.9519  -1.2159   0.0000   0.2289
   4.000   0.4268   0.00730   0.00232   0.0063  0.2545  0.9693  -1.4138   0.0000   0.2297
   4.500   0.4877   0.00787   0.00266   0.0051  0.1998  0.9804  -1.6484   0.0000   0.2336
   5.000   0.5555   0.00850   0.00306   0.0023  0.1498  0.9861  -1.9231   0.0000   0.2397
   5.500   0.6248   0.00915   0.00350  -0.0009  0.1100  0.9905  -2.2283   0.0000   0.2450
   6.000   0.6937   0.00978   0.00398  -0.0040  0.0819  0.9944  -2.5596   0.0000   0.2490
   6.500   0.7629   0.01040   0.00449  -0.0072  0.0630  0.9976  -2.9241   0.0000   0.2523
   7.000   0.8261   0.01102   0.00503  -0.0091  0.0511  1.0000  -3.2917   0.0000   0.2535
   7.500   0.8680   0.01156   0.00555  -0.0065  0.0439  1.0000  -3.6183   0.0000   0.2494
   8.000   0.9097   0.01214   0.00613  -0.0038  0.0386  1.0000  -3.9542   0.0000   0.2456
   8.500   0.9518   0.01277   0.00677  -0.0012  0.0344  1.0000  -4.3150   0.0000   0.2422
   9.000   0.9941   0.01346   0.00748   0.0012  0.0310  1.0000  -4.6941   0.0000   0.2391
   9.500   1.0368   0.01421   0.00826   0.0035  0.0282  1.0000  -5.0860   0.0000   0.2363
  10.000   1.0797   0.01507   0.00916   0.0056  0.0259  1.0000  -5.4930   0.0000   0.2339
  10.500   1.1220   0.01607   0.01020   0.0077  0.0240  1.0000  -5.9262   0.0000   0.2316
  11.000   1.1663   0.01691   0.01113   0.0093  0.0223  1.0000  -6.3837   0.0000   0.2298
  11.500   1.2062   0.01811   0.01240   0.0115  0.0209  1.0000  -6.8261   0.0000   0.2276
  12.000   1.2466   0.01920   0.01358   0.0135  0.0197  1.0000  -7.2859   0.0000   0.2256
  12.500   1.2799   0.02073   0.01520   0.0162  0.0186  1.0000  -7.7159   0.0000   0.2229
  13.000   1.3147   0.02197   0.01658   0.0188  0.0177  1.0000  -8.1895   0.0000   0.2205
  13.500   1.3385   0.02352   0.01822   0.0227  0.0169  1.0000  -8.6131   0.0000   0.2170
  14.000   1.3512   0.02595   0.02079   0.0270  0.0163  1.0000  -8.9595   0.0000   0.2132
  14.500   1.3695   0.02832   0.02335   0.0296  0.0158  1.0000  -9.3454   0.0000   0.2106
  15.000   1.3824   0.03147   0.02667   0.0314  0.0153  1.0000  -9.6976   0.0000   0.2085
  15.500   1.3900   0.03566   0.03103   0.0319  0.0148  1.0000  -10.0099   0.0000   0.2073
  16.000   1.3863   0.04181   0.03737   0.0305  0.0145  1.0000  -10.2243   0.0000   0.2070
  16.500   1.3657   0.05099   0.04677   0.0268  0.0142  1.0000  -10.2735   0.0000   0.2082
  17.000   1.3512   0.06015   0.05620   0.0224  0.0140  1.0000  -10.3567   0.0000   0.2100
  17.500   1.3241   0.07153   0.06785   0.0167  0.0139  1.0000  -10.3080   0.0000   0.2128
  18.000   1.2887   0.08468   0.08125   0.0100  0.0138  1.0000  -10.1533   0.0000   0.2165
  18.500   1.2509   0.09871   0.09552   0.0027  0.0137  1.0000  -9.9384   0.0000   0.2209
  19.000   1.2157   0.11281   0.10983  -0.0050  0.0135  1.0000  -9.7037   0.0000   0.2261
  19.500   1.1854   0.12652   0.12374  -0.0130  0.0134  1.0000  -9.4741   0.0000   0.2319
  20.000   1.1596   0.13983   0.13723  -0.0214  0.0132  1.0000  -9.2454   0.0000   0.2383
  20.500   1.1370   0.15294   0.15050  -0.0301  0.0130  1.0000  -8.9981   0.0000   0.2453
  21.000   1.1163   0.16611   0.16382  -0.0394  0.0128  1.0000  -8.7118   0.0000   0.2532
  21.500   1.0939   0.18017   0.17805  -0.0496  0.0126  1.0000  -8.3162   0.0000   0.2624


