xflr5 v6.33

 Calculated polar for: NACA 0012-64

 1 1 Reynolds number fixed          Mach number fixed         

 xtrf =   1.000 (top)        1.000 (bottom)
 Mach =   0.000     Re =     2.100 e 6     Ncrit =   9.000

  alpha     CL        CD       CDp       Cm    Top Xtr Bot Xtr   Cpmin    Chinge    XCp    
 ------- -------- --------- --------- -------- ------- ------- -------- --------- ---------
 -25.000  -0.9345   0.29192   0.29069   0.0926  1.0000  0.0041  -2.5752   0.0000   0.3144
 -24.500  -0.9188   0.28702   0.28578   0.0880  1.0000  0.0043  -2.4554   0.0000   0.3123
 -24.000  -0.9031   0.28138   0.28014   0.0833  1.0000  0.0047  -2.4010   0.0000   0.3098
 -23.500  -0.9533   0.23687   0.23560   0.0643  1.0000  0.0069  -6.6409   0.0000   0.2814
 -23.000  -0.9742   0.21924   0.21788   0.0530  1.0000  0.0079  -7.5530   0.0000   0.2684
 -22.500  -0.9909   0.20444   0.20299   0.0429  1.0000  0.0085  -8.1505   0.0000   0.2580
 -22.000  -1.0218   0.18690   0.18535   0.0312  1.0000  0.0091  -8.9184   0.0000   0.2458
 -21.500  -1.0985   0.15999   0.15823   0.0137  1.0000  0.0093  -10.3454   0.0000   0.2283
 -21.000  -1.3267   0.10738   0.10496  -0.0172  1.0000  0.0083  -13.6161   0.0000   0.2037
 -20.500  -1.4625   0.07600   0.07307  -0.0345  1.0000  0.0080  -15.1234   0.0000   0.1946
 -20.000  -1.5110   0.06150   0.05826  -0.0419  1.0000  0.0080  -15.3820   0.0000   0.1920
 -19.500  -1.5336   0.05209   0.04861  -0.0455  1.0000  0.0081  -15.2889   0.0000   0.1915
 -19.000  -1.5548   0.04394   0.04023  -0.0473  1.0000  0.0085  -15.1600   0.0000   0.1922
 -18.500  -1.5631   0.03813   0.03424  -0.0470  1.0000  0.0088  -14.8821   0.0000   0.1938
 -18.000  -1.5614   0.03380   0.02975  -0.0457  1.0000  0.0092  -14.4964   0.0000   0.1959
 -17.500  -1.5524   0.03044   0.02623  -0.0438  1.0000  0.0097  -14.0390   0.0000   0.1981
 -17.000  -1.5369   0.02783   0.02348  -0.0415  1.0000  0.0100  -13.5241   0.0000   0.2004
 -16.500  -1.5240   0.02517   0.02070  -0.0383  1.0000  0.0108  -13.0424   0.0000   0.2033
 -16.000  -1.5036   0.02319   0.01863  -0.0353  1.0000  0.0116  -12.4960   0.0000   0.2060
 -15.000  -1.4524   0.02014   0.01540  -0.0290  1.0000  0.0135  -11.3893   0.0000   0.2114
 -14.500  -1.4212   0.01904   0.01423  -0.0261  1.0000  0.0145  -10.8063   0.0000   0.2139
 -14.000  -1.3904   0.01798   0.01310  -0.0228  1.0000  0.0157  -10.2391   0.0000   0.2167
 -13.500  -1.3576   0.01718   0.01228  -0.0195  1.0000  0.0169  -9.6649   0.0000   0.2196
 -13.000  -1.3272   0.01660   0.01162  -0.0153  1.0000  0.0176  -9.1172   0.0000   0.2233
 -12.500  -1.3002   0.01585   0.01085  -0.0104  1.0000  0.0188  -8.6087   0.0000   0.2276
 -12.000  -1.2725   0.01543   0.01041  -0.0053  1.0000  0.0198  -8.0996   0.0000   0.2322
 -11.500  -1.2327   0.01500   0.00995  -0.0028  0.9995  0.0206  -7.5344   0.0000   0.2349
 -11.000  -1.1761   0.01419   0.00909  -0.0040  0.9978  0.0217  -6.9018   0.0000   0.2345
 -10.500  -1.1170   0.01355   0.00845  -0.0056  0.9963  0.0229  -6.2749   0.0000   0.2336
 -10.000  -1.0566   0.01298   0.00786  -0.0074  0.9952  0.0239  -5.6761   0.0000   0.2322
  -9.500  -0.9978   0.01252   0.00737  -0.0086  0.9926  0.0246  -5.1497   0.0000   0.2312
  -9.000  -0.9397   0.01166   0.00646  -0.0100  0.9903  0.0261  -4.6775   0.0000   0.2298
  -8.500  -0.8777   0.01107   0.00587  -0.0120  0.9886  0.0274  -4.1997   0.0000   0.2273
  -8.000  -0.8196   0.01057   0.00536  -0.0130  0.9849  0.0285  -3.7761   0.0000   0.2256
  -7.500  -0.7640   0.01013   0.00490  -0.0133  0.9796  0.0293  -3.3992   0.0000   0.2245
  -7.000  -0.7151   0.00953   0.00426  -0.0121  0.9714  0.0311  -3.1001   0.0000   0.2254
  -6.500  -0.6650   0.00911   0.00383  -0.0111  0.9627  0.0325  -2.8282   0.0000   0.2262
  -6.000  -0.6138   0.00876   0.00345  -0.0102  0.9539  0.0337  -2.5692   0.0000   0.2266
  -5.500  -0.5626   0.00838   0.00305  -0.0094  0.9444  0.0365  -2.3217   0.0000   0.2270
  -5.000  -0.5105   0.00805   0.00271  -0.0087  0.9341  0.0408  -2.0769   0.0000   0.2269
  -4.500  -0.4590   0.00760   0.00237  -0.0079  0.9231  0.0613  -1.8430   0.0000   0.2270
  -4.000  -0.4065   0.00724   0.00210  -0.0074  0.9110  0.0842  -1.6172   0.0000   0.2264
  -3.500  -0.3539   0.00687   0.00184  -0.0068  0.8986  0.1159  -1.4086   0.0000   0.2254
  -3.000  -0.3019   0.00644   0.00160  -0.0062  0.8854  0.1715  -1.2091   0.0000   0.2244
  -2.500  -0.2499   0.00603   0.00139  -0.0056  0.8716  0.2369  -1.0273   0.0000   0.2227
  -2.000  -0.2015   0.00531   0.00114  -0.0044  0.8565  0.3733  -0.8614   0.0000   0.2234
  -1.500  -0.1550   0.00456   0.00092  -0.0027  0.8366  0.5390  -0.7044   0.0000   0.2278
  -1.000  -0.1043   0.00425   0.00081  -0.0017  0.8092  0.6255  -0.5473   0.0000   0.2297
  -0.500  -0.0522   0.00407   0.00076  -0.0008  0.7782  0.6880  -0.4254   0.0000   0.2294
   0.000   0.0000   0.00398   0.00074  -0.0000  0.7448  0.7448  -0.3383   0.0000   0.4801
   0.500   0.0522   0.00407   0.00076   0.0008  0.6880  0.7782  -0.4254   0.0000   0.2294
   1.500   0.1550   0.00456   0.00092   0.0027  0.5390  0.8366  -0.7044   0.0000   0.2278
   2.000   0.2015   0.00531   0.00114   0.0044  0.3733  0.8564  -0.8614   0.0000   0.2235
   2.500   0.2500   0.00603   0.00139   0.0056  0.2369  0.8716  -1.0274   0.0000   0.2227
   3.000   0.3020   0.00644   0.00160   0.0062  0.1715  0.8854  -1.2091   0.0000   0.2244
   3.500   0.3539   0.00687   0.00184   0.0068  0.1159  0.8986  -1.4087   0.0000   0.2254
   4.000   0.4065   0.00724   0.00210   0.0074  0.0842  0.9110  -1.6173   0.0000   0.2264
   4.500   0.4591   0.00760   0.00237   0.0079  0.0613  0.9231  -1.8431   0.0000   0.2270
   5.000   0.5105   0.00805   0.00271   0.0087  0.0408  0.9341  -2.0771   0.0000   0.2270
   5.500   0.5627   0.00838   0.00305   0.0094  0.0365  0.9444  -2.3219   0.0000   0.2270
   6.000   0.6139   0.00876   0.00345   0.0102  0.0337  0.9539  -2.5694   0.0000   0.2266
   6.500   0.6651   0.00911   0.00383   0.0111  0.0325  0.9627  -2.8285   0.0000   0.2262
   7.000   0.7152   0.00953   0.00426   0.0121  0.0311  0.9714  -3.1004   0.0000   0.2255
   7.500   0.7641   0.01013   0.00490   0.0133  0.0293  0.9796  -3.3994   0.0000   0.2245
   8.000   0.8197   0.01057   0.00536   0.0130  0.0285  0.9849  -3.7764   0.0000   0.2256
   8.500   0.8778   0.01107   0.00587   0.0119  0.0274  0.9886  -4.2002   0.0000   0.2273
   9.000   0.9399   0.01166   0.00646   0.0099  0.0261  0.9904  -4.6780   0.0000   0.2298
   9.500   0.9979   0.01252   0.00737   0.0086  0.0246  0.9926  -5.1503   0.0000   0.2312
  10.000   1.0567   0.01298   0.00786   0.0073  0.0239  0.9952  -5.6769   0.0000   0.2323
  10.500   1.1172   0.01355   0.00845   0.0055  0.0229  0.9963  -6.2760   0.0000   0.2336
  11.000   1.1763   0.01419   0.00909   0.0039  0.0217  0.9978  -6.9029   0.0000   0.2345
  11.500   1.2330   0.01500   0.00995   0.0027  0.0206  0.9995  -7.5359   0.0000   0.2349
  12.000   1.2724   0.01542   0.01041   0.0053  0.0198  1.0000  -8.0988   0.0000   0.2322
  12.500   1.3002   0.01585   0.01085   0.0104  0.0188  1.0000  -8.6088   0.0000   0.2276
  13.000   1.3274   0.01659   0.01162   0.0153  0.0176  1.0000  -9.1188   0.0000   0.2233
  13.500   1.3582   0.01718   0.01228   0.0194  0.0168  1.0000  -9.6684   0.0000   0.2197
  14.000   1.3911   0.01798   0.01310   0.0227  0.0157  1.0000  -10.2433   0.0000   0.2168
  14.500   1.4220   0.01904   0.01423   0.0259  0.0145  1.0000  -10.8115   0.0000   0.2140
  15.000   1.4532   0.02014   0.01540   0.0288  0.0135  1.0000  -11.3952   0.0000   0.2115
  15.500   1.4792   0.02163   0.01695   0.0321  0.0123  1.0000  -11.9468   0.0000   0.2087
  16.000   1.5047   0.02319   0.01862   0.0351  0.0116  1.0000  -12.5042   0.0000   0.2062
  16.500   1.5252   0.02516   0.02069   0.0381  0.0108  1.0000  -13.0517   0.0000   0.2035
  17.000   1.5384   0.02781   0.02345   0.0412  0.0100  1.0000  -13.5357   0.0000   0.2006
  17.500   1.5540   0.03041   0.02621   0.0435  0.0096  1.0000  -14.0521   0.0000   0.1983
  18.000   1.5632   0.03377   0.02972   0.0454  0.0092  1.0000  -14.5110   0.0000   0.1961
  18.500   1.5649   0.03810   0.03420   0.0468  0.0088  1.0000  -14.8979   0.0000   0.1940
  19.000   1.5567   0.04391   0.04020   0.0470  0.0084  1.0000  -15.1763   0.0000   0.1924
  19.500   1.5363   0.05196   0.04849   0.0453  0.0081  1.0000  -15.3144   0.0000   0.1918
  20.000   1.5140   0.06134   0.05810   0.0416  0.0080  1.0000  -15.4110   0.0000   0.1923
  20.500   1.4662   0.07576   0.07282   0.0342  0.0080  1.0000  -15.1599   0.0000   0.1948
  21.000   1.3281   0.10758   0.10516   0.0167  0.0083  1.0000  -13.6220   0.0000   0.2041
  21.500   1.0992   0.16041   0.15865  -0.0143  0.0093  1.0000  -10.3379   0.0000   0.2288
  22.000   1.0230   0.18731   0.18577  -0.0317  0.0091  1.0000  -8.9182   0.0000   0.2462
  22.500   0.9924   0.20493   0.20347  -0.0434  0.0085  1.0000  -8.1553   0.0000   0.2584
  23.000   0.9752   0.22005   0.21868  -0.0535  0.0079  1.0000  -7.5396   0.0000   0.2690
  23.500   0.9552   0.23753   0.23625  -0.0647  0.0069  1.0000  -6.6554   0.0000   0.2817
  24.000   0.9051   0.28267   0.28143  -0.0838  0.0046  1.0000  -2.4034   0.0000   0.3102
  24.500   0.9208   0.28840   0.28716  -0.0885  0.0043  1.0000  -2.4605   0.0000   0.3127
  25.000   0.9366   0.29339   0.29216  -0.0932  0.0041  1.0000  -2.5821   0.0000   0.3148
  25.500   0.9522   0.29780   0.29658  -0.0978  0.0040  1.0000  -2.7582   0.0000   0.3166
  26.000   0.9663   0.30395   0.30273  -0.1027  0.0039  1.0000  -2.7139   0.0000   0.3191
  26.500   0.9816   0.31298   0.31176  -0.1085  0.0033  1.0000  -2.3421   0.0000   0.3225
  27.000   0.9965   0.31804   0.31683  -0.1134  0.0031  1.0000  -2.4163   0.0000   0.3245
  27.500   1.0110   0.32269   0.32148  -0.1183  0.0030  1.0000  -2.5371   0.0000   0.3263
  28.000   1.0250   0.32692   0.32573  -0.1232  0.0030  1.0000  -2.6894   0.0000   0.3280
  28.500   1.0399   0.33569   0.33450  -0.1289  0.0027  1.0000  -2.3144   0.0000   0.3309
  29.000   1.0540   0.34101   0.33982  -0.1341  0.0024  1.0000  -2.3284   0.0000   0.3328
  29.500   1.0677   0.34581   0.34463  -0.1393  0.0023  1.0000  -2.3900   0.0000   0.3345
  30.000   1.0808   0.35024   0.34907  -0.1445  0.0022  1.0000  -2.4824   0.0000   0.3361
  30.500   1.0934   0.35431   0.35315  -0.1497  0.0021  1.0000  -2.6035   0.0000   0.3377
  31.000   1.1056   0.35893   0.35777  -0.1549  0.0021  1.0000  -2.6562   0.0000   0.3392
  31.500   1.1206   0.36709   0.36594  -0.1607  0.0018  1.0000  -2.3101   0.0000   0.3415
  32.000   1.1328   0.37177   0.37062  -0.1661  0.0016  1.0000  -2.3459   0.0000   0.3431
  32.500   1.1446   0.37608   0.37495  -0.1716  0.0015  1.0000  -2.4107   0.0000   0.3446
  33.000   1.1557   0.38007   0.37895  -0.1771  0.0015  1.0000  -2.5001   0.0000   0.3460
  33.500   1.1661   0.38372   0.38261  -0.1825  0.0014  1.0000  -2.6232   0.0000   0.3473
  34.000   1.1766   0.38810   0.38700  -0.1880  0.0014  1.0000  -2.6533   0.0000   0.3488
  34.500   1.1901   0.39533   0.39423  -0.1938  0.0012  1.0000  -2.3481   0.0000   0.3505
  35.000   1.2005   0.39975   0.39866  -0.1994  0.0011  1.0000  -2.3617   0.0000   0.3519
  35.500   1.2102   0.40372   0.40265  -0.2050  0.0010  1.0000  -2.4072   0.0000   0.3532
  36.000   1.2192   0.40740   0.40634  -0.2107  0.0009  1.0000  -2.4757   0.0000   0.3544
  36.500   1.2276   0.41079   0.40973  -0.2164  0.0009  1.0000  -2.5661   0.0000   0.3556
  37.000   1.2351   0.41378   0.41274  -0.2221  0.0009  1.0000  -2.6805   0.0000   0.3568
  37.500   1.2445   0.41889   0.41786  -0.2279  0.0008  1.0000  -2.5448   0.0000   0.3581
  38.000   1.2550   0.42458   0.42356  -0.2336  0.0007  1.0000  -2.3549   0.0000   0.3593
  38.500   1.2626   0.42827   0.42725  -0.2394  0.0006  1.0000  -2.3736   0.0000   0.3604
  39.000   1.2695   0.43169   0.43069  -0.2452  0.0005  1.0000  -2.4330   0.0000   0.3615
  39.500   1.2757   0.43483   0.43385  -0.2510  0.0005  1.0000  -2.5089   0.0000   0.3626
  40.000   1.2813   0.43772   0.43674  -0.2569  0.0005  1.0000  -2.6016   0.0000   0.3637
  40.500   1.2860   0.44019   0.43922  -0.2628  0.0004  1.0000  -2.7125   0.0000   0.3647


