xflr5 v6.33

 Calculated polar for: NACA 0012-64

 1 1 Reynolds number fixed          Mach number fixed         

 xtrf =   1.000 (top)        1.000 (bottom)
 Mach =   0.000     Re =     3.300 e 6     Ncrit =   9.000

  alpha     CL        CD       CDp       Cm    Top Xtr Bot Xtr   Cpmin    Chinge    XCp    
 ------- -------- --------- --------- -------- ------- ------- -------- --------- ---------
 -26.500  -0.9802   0.31042   0.30945   0.1080  1.0000  0.0024  -2.5236   0.0000   0.3221
 -25.500  -0.9966   0.26414   0.26311   0.0864  1.0000  0.0046  -6.8545   0.0000   0.2960
 -25.000  -0.9995   0.25180   0.25070   0.0779  1.0000  0.0051  -7.4018   0.0000   0.2878
 -24.500  -0.9922   0.24395   0.24283   0.0717  1.0000  0.0056  -7.4598   0.0000   0.2832
 -24.000  -0.9866   0.23564   0.23451   0.0653  1.0000  0.0060  -7.5394   0.0000   0.2782
 -23.500  -0.9902   0.22446   0.22327   0.0574  1.0000  0.0064  -7.8640   0.0000   0.2707
 -23.000  -0.9958   0.21295   0.21170   0.0492  1.0000  0.0069  -8.1752   0.0000   0.2630
 -22.500  -1.0402   0.19130   0.18993   0.0347  1.0000  0.0074  -9.3127   0.0000   0.2473
 -22.000  -1.2842   0.13017   0.12813  -0.0044  1.0000  0.0067  -13.5185   0.0000   0.2106
 -21.500  -1.5159   0.08179   0.07904  -0.0316  1.0000  0.0063  -16.4907   0.0000   0.1947
 -21.000  -1.5751   0.06559   0.06254  -0.0399  1.0000  0.0063  -16.8964   0.0000   0.1918
 -20.500  -1.6046   0.05507   0.05179  -0.0444  1.0000  0.0064  -16.8811   0.0000   0.1911
 -20.000  -1.6190   0.04742   0.04395  -0.0465  1.0000  0.0065  -16.6628   0.0000   0.1914
 -19.500  -1.6256   0.04141   0.03777  -0.0472  1.0000  0.0066  -16.3415   0.0000   0.1925
 -19.000  -1.6326   0.03600   0.03219  -0.0464  1.0000  0.0069  -16.0178   0.0000   0.1944
 -18.500  -1.6306   0.03189   0.02793  -0.0447  1.0000  0.0073  -15.5927   0.0000   0.1967
 -18.000  -1.6212   0.02871   0.02463  -0.0425  1.0000  0.0076  -15.1088   0.0000   0.1990
 -17.500  -1.6057   0.02620   0.02201  -0.0400  1.0000  0.0080  -14.5711   0.0000   0.2015
 -17.000  -1.5868   0.02409   0.01978  -0.0372  1.0000  0.0083  -14.0098   0.0000   0.2040
 -16.500  -1.5685   0.02203   0.01762  -0.0338  1.0000  0.0090  -13.4634   0.0000   0.2069
 -16.000  -1.5443   0.02044   0.01596  -0.0306  1.0000  0.0096  -12.8722   0.0000   0.2097
 -15.500  -1.5160   0.01916   0.01459  -0.0275  1.0000  0.0101  -12.2798   0.0000   0.2123
 -15.000  -1.4889   0.01783   0.01321  -0.0240  1.0000  0.0113  -11.7095   0.0000   0.2153
 -14.500  -1.4575   0.01683   0.01215  -0.0207  1.0000  0.0121  -11.1145   0.0000   0.2181
 -14.000  -1.4278   0.01589   0.01118  -0.0168  1.0000  0.0136  -10.5441   0.0000   0.2214
 -13.500  -1.3974   0.01522   0.01047  -0.0126  1.0000  0.0146  -9.9761   0.0000   0.2249
 -13.000  -1.3703   0.01457   0.00978  -0.0076  1.0000  0.0158  -9.4440   0.0000   0.2292
 -12.500  -1.3349   0.01400   0.00920  -0.0042  0.9996  0.0169  -8.8696   0.0000   0.2324
 -12.000  -1.2785   0.01342   0.00859  -0.0052  0.9984  0.0176  -8.1848   0.0000   0.2323
 -11.500  -1.2221   0.01271   0.00789  -0.0063  0.9969  0.0192  -7.5270   0.0000   0.2319
 -11.000  -1.1631   0.01220   0.00739  -0.0078  0.9958  0.0203  -6.8730   0.0000   0.2311
 -10.500  -1.1030   0.01178   0.00697  -0.0095  0.9949  0.0209  -6.2377   0.0000   0.2300
 -10.000  -1.0472   0.01108   0.00624  -0.0102  0.9922  0.0223  -5.6689   0.0000   0.2294
  -9.500  -0.9892   0.01060   0.00576  -0.0113  0.9894  0.0233  -5.1506   0.0000   0.2284
  -9.000  -0.9339   0.01018   0.00535  -0.0117  0.9846  0.0241  -4.6779   0.0000   0.2279
  -8.500  -0.8820   0.00984   0.00499  -0.0112  0.9781  0.0246  -4.2361   0.0000   0.2283
  -8.000  -0.8341   0.00933   0.00444  -0.0098  0.9698  0.0260  -3.8487   0.0000   0.2298
  -7.500  -0.7839   0.00894   0.00404  -0.0088  0.9611  0.0273  -3.4851   0.0000   0.2307
  -7.000  -0.7322   0.00860   0.00369  -0.0082  0.9524  0.0283  -3.1638   0.0000   0.2313
  -6.500  -0.6798   0.00829   0.00335  -0.0077  0.9435  0.0289  -2.8835   0.0000   0.2316
  -6.000  -0.6273   0.00795   0.00298  -0.0071  0.9334  0.0303  -2.6204   0.0000   0.2320
  -5.500  -0.5742   0.00764   0.00266  -0.0067  0.9229  0.0325  -2.3611   0.0000   0.2320
  -5.000  -0.5200   0.00739   0.00240  -0.0065  0.9117  0.0341  -2.1062   0.0000   0.2316
  -4.500  -0.4666   0.00707   0.00211  -0.0061  0.8991  0.0426  -1.8648   0.0000   0.2313
  -4.000  -0.4137   0.00669   0.00184  -0.0056  0.8863  0.0677  -1.6345   0.0000   0.2310
  -3.500  -0.3596   0.00643   0.00163  -0.0054  0.8728  0.0870  -1.4216   0.0000   0.2299
  -3.000  -0.3060   0.00612   0.00144  -0.0051  0.8585  0.1206  -1.2177   0.0000   0.2284
  -2.500  -0.2527   0.00578   0.00125  -0.0047  0.8431  0.1727  -1.0328   0.0000   0.2266
  -2.000  -0.1999   0.00547   0.00109  -0.0042  0.8221  0.2314  -0.8589   0.0000   0.2242
  -1.500  -0.1515   0.00485   0.00088  -0.0029  0.7928  0.3753  -0.6995   0.0000   0.2260
  -1.000  -0.1023   0.00438   0.00073  -0.0018  0.7595  0.5023  -0.5451   0.0000   0.2282
  -0.500  -0.0512   0.00412   0.00065  -0.0009  0.7206  0.5925  -0.4247   0.0000   0.2280
   0.000   0.0000   0.00402   0.00062  -0.0000  0.6669  0.6669  -0.3385   0.0000   0.4816
   0.500   0.0512   0.00412   0.00065   0.0009  0.5925  0.7206  -0.4247   0.0000   0.2280
   1.000   0.1023   0.00438   0.00073   0.0018  0.5023  0.7595  -0.5451   0.0000   0.2282
   1.500   0.1515   0.00485   0.00088   0.0029  0.3752  0.7928  -0.6995   0.0000   0.2260
   2.000   0.1999   0.00547   0.00109   0.0042  0.2314  0.8221  -0.8589   0.0000   0.2243
   2.500   0.2527   0.00578   0.00125   0.0047  0.1727  0.8431  -1.0328   0.0000   0.2266
   3.000   0.3060   0.00612   0.00144   0.0051  0.1206  0.8585  -1.2177   0.0000   0.2285
   3.500   0.3597   0.00643   0.00163   0.0054  0.0870  0.8728  -1.4217   0.0000   0.2299
   4.000   0.4138   0.00669   0.00184   0.0056  0.0677  0.8863  -1.6346   0.0000   0.2310
   4.500   0.4667   0.00707   0.00211   0.0061  0.0426  0.8991  -1.8649   0.0000   0.2313
   5.000   0.5201   0.00739   0.00240   0.0064  0.0341  0.9117  -2.1064   0.0000   0.2316
   5.500   0.5742   0.00764   0.00266   0.0067  0.0325  0.9229  -2.3612   0.0000   0.2321
   6.000   0.6274   0.00795   0.00298   0.0071  0.0303  0.9334  -2.6206   0.0000   0.2320
   6.500   0.6799   0.00829   0.00335   0.0076  0.0289  0.9435  -2.8837   0.0000   0.2317
   7.000   0.7323   0.00860   0.00369   0.0082  0.0283  0.9524  -3.1641   0.0000   0.2313
   7.500   0.7840   0.00894   0.00404   0.0088  0.0273  0.9611  -3.4855   0.0000   0.2308
   8.000   0.8342   0.00933   0.00444   0.0098  0.0260  0.9698  -3.8492   0.0000   0.2298
   8.500   0.8822   0.00984   0.00499   0.0111  0.0246  0.9781  -4.2367   0.0000   0.2284
   9.000   0.9341   0.01018   0.00535   0.0116  0.0241  0.9846  -4.6785   0.0000   0.2279
   9.500   0.9893   0.01060   0.00576   0.0113  0.0233  0.9893  -5.1512   0.0000   0.2284
  10.000   1.0473   0.01108   0.00624   0.0102  0.0223  0.9923  -5.6696   0.0000   0.2295
  10.500   1.1031   0.01178   0.00697   0.0094  0.0209  0.9949  -6.2385   0.0000   0.2300
  11.000   1.1633   0.01220   0.00738   0.0078  0.0203  0.9958  -6.8742   0.0000   0.2312
  11.500   1.2224   0.01270   0.00788   0.0063  0.0192  0.9969  -7.5283   0.0000   0.2320
  12.000   1.2787   0.01342   0.00859   0.0052  0.0176  0.9984  -8.1862   0.0000   0.2323
  12.500   1.3351   0.01399   0.00920   0.0041  0.0169  0.9996  -8.8713   0.0000   0.2325
  13.000   1.3702   0.01457   0.00978   0.0076  0.0158  1.0000  -9.4435   0.0000   0.2292
  13.500   1.3975   0.01522   0.01046   0.0126  0.0146  1.0000  -9.9771   0.0000   0.2250
  14.000   1.4284   0.01589   0.01118   0.0167  0.0136  1.0000  -10.5478   0.0000   0.2215
  14.500   1.4581   0.01683   0.01215   0.0206  0.0121  1.0000  -11.1192   0.0000   0.2182
  15.000   1.4896   0.01783   0.01320   0.0238  0.0113  1.0000  -11.7148   0.0000   0.2154
  15.500   1.5169   0.01916   0.01459   0.0273  0.0101  1.0000  -12.2858   0.0000   0.2124
  16.000   1.5453   0.02044   0.01595   0.0304  0.0096  1.0000  -12.8797   0.0000   0.2098
  16.500   1.5696   0.02202   0.01762   0.0336  0.0090  1.0000  -13.4721   0.0000   0.2071
  17.000   1.5881   0.02408   0.01977   0.0369  0.0083  1.0000  -14.0195   0.0000   0.2042
  17.500   1.6072   0.02619   0.02199   0.0397  0.0080  1.0000  -14.5832   0.0000   0.2017
  18.000   1.6228   0.02869   0.02461   0.0422  0.0076  1.0000  -15.1225   0.0000   0.1992
  18.500   1.6324   0.03186   0.02790   0.0445  0.0073  1.0000  -15.6078   0.0000   0.1969
  19.000   1.6345   0.03597   0.03215   0.0461  0.0069  1.0000  -16.0347   0.0000   0.1946
  19.500   1.6276   0.04137   0.03773   0.0469  0.0066  1.0000  -16.3595   0.0000   0.1928
  20.000   1.6218   0.04731   0.04384   0.0462  0.0065  1.0000  -16.6888   0.0000   0.1917
  20.500   1.6075   0.05493   0.05165   0.0441  0.0064  1.0000  -16.9099   0.0000   0.1913
  21.000   1.5784   0.06540   0.06235   0.0396  0.0063  1.0000  -16.9298   0.0000   0.1921
  21.500   1.5199   0.08150   0.07875   0.0313  0.0063  1.0000  -16.5337   0.0000   0.1950
  22.000   1.2834   0.13078   0.12876   0.0037  0.0067  1.0000  -13.4915   0.0000   0.2111
  22.500   1.0413   0.19180   0.19043  -0.0352  0.0074  1.0000  -9.3088   0.0000   0.2477
  23.000   0.9973   0.21352   0.21227  -0.0497  0.0069  1.0000  -8.1775   0.0000   0.2634
  23.500   0.9918   0.22509   0.22390  -0.0578  0.0064  1.0000  -7.8685   0.0000   0.2711
  24.000   0.9884   0.23637   0.23524  -0.0658  0.0060  1.0000  -7.5455   0.0000   0.2785
  24.500   0.9940   0.24481   0.24370  -0.0722  0.0056  1.0000  -7.4665   0.0000   0.2836
  25.000   1.0011   0.25284   0.25174  -0.0785  0.0051  1.0000  -7.3998   0.0000   0.2882
  25.500   0.9985   0.26527   0.26424  -0.0870  0.0046  1.0000  -6.8600   0.0000   0.2964
  26.000   1.0048   0.27425   0.27324  -0.0937  0.0042  1.0000  -6.6354   0.0000   0.3016


