xflr5 v6.33

 Calculated polar for: NACA 0012-64

 1 1 Reynolds number fixed          Mach number fixed         

 xtrf =   1.000 (top)        1.000 (bottom)
 Mach =   0.000     Re =     2.600 e 6     Ncrit =   9.000

  alpha     CL        CD       CDp       Cm    Top Xtr Bot Xtr   Cpmin    Chinge    XCp    
 ------- -------- --------- --------- -------- ------- ------- -------- --------- ---------
 -24.500  -0.9708   0.25226   0.25112   0.0761  1.0000  0.0056  -6.5921   0.0000   0.2902
 -24.000  -0.9788   0.23819   0.23698   0.0668  1.0000  0.0063  -7.2565   0.0000   0.2804
 -23.500  -0.9813   0.22710   0.22583   0.0589  1.0000  0.0069  -7.5885   0.0000   0.2730
 -23.000  -0.9866   0.21551   0.21421   0.0507  1.0000  0.0075  -7.9159   0.0000   0.2652
 -22.500  -1.0088   0.19959   0.19818   0.0399  1.0000  0.0080  -8.5932   0.0000   0.2539
 -22.000  -1.0460   0.18097   0.17942   0.0275  1.0000  0.0083  -9.4282   0.0000   0.2413
 -21.500  -1.3691   0.10713   0.10476  -0.0175  1.0000  0.0074  -14.4898   0.0000   0.2025
 -21.000  -1.4940   0.07810   0.07524  -0.0335  1.0000  0.0071  -15.8646   0.0000   0.1945
 -20.500  -1.5473   0.06291   0.05975  -0.0412  1.0000  0.0071  -16.1857   0.0000   0.1919
 -20.000  -1.5765   0.05260   0.04921  -0.0453  1.0000  0.0073  -16.1650   0.0000   0.1913
 -19.500  -1.5918   0.04511   0.04152  -0.0470  1.0000  0.0075  -15.9566   0.0000   0.1919
 -19.000  -1.5972   0.03946   0.03569  -0.0471  1.0000  0.0077  -15.6262   0.0000   0.1932
 -18.500  -1.5944   0.03512   0.03120  -0.0462  1.0000  0.0080  -15.2119   0.0000   0.1950
 -18.000  -1.5868   0.03155   0.02747  -0.0445  1.0000  0.0082  -14.7593   0.0000   0.1971
 -17.500  -1.5801   0.02817   0.02396  -0.0419  1.0000  0.0088  -14.3184   0.0000   0.1998
 -17.000  -1.5656   0.02563   0.02129  -0.0391  1.0000  0.0094  -13.8037   0.0000   0.2024
 -16.500  -1.5453   0.02363   0.01919  -0.0362  1.0000  0.0098  -13.2437   0.0000   0.2050
 -16.000  -1.5233   0.02182   0.01727  -0.0330  1.0000  0.0105  -12.6812   0.0000   0.2078
 -15.500  -1.4991   0.02023   0.01560  -0.0297  1.0000  0.0114  -12.1281   0.0000   0.2106
 -15.000  -1.4700   0.01900   0.01430  -0.0266  1.0000  0.0122  -11.5447   0.0000   0.2133
 -14.500  -1.4408   0.01781   0.01306  -0.0233  1.0000  0.0136  -10.9730   0.0000   0.2161
 -14.000  -1.4080   0.01694   0.01214  -0.0201  1.0000  0.0146  -10.3840   0.0000   0.2189
 -13.500  -1.3790   0.01611   0.01127  -0.0158  1.0000  0.0158  -9.8331   0.0000   0.2225
 -13.000  -1.3488   0.01549   0.01062  -0.0115  1.0000  0.0169  -9.2825   0.0000   0.2263
 -12.500  -1.3207   0.01502   0.01010  -0.0066  1.0000  0.0175  -8.7569   0.0000   0.2306
 -12.000  -1.2852   0.01434   0.00939  -0.0033  0.9995  0.0188  -8.2045   0.0000   0.2338
 -11.500  -1.2275   0.01378   0.00884  -0.0046  0.9981  0.0200  -7.5332   0.0000   0.2334
 -11.000  -1.1680   0.01331   0.00836  -0.0062  0.9967  0.0208  -6.8760   0.0000   0.2326
 -10.500  -1.1103   0.01254   0.00755  -0.0075  0.9955  0.0221  -6.2622   0.0000   0.2318
 -10.000  -1.0521   0.01199   0.00700  -0.0087  0.9936  0.0231  -5.6750   0.0000   0.2309
  -9.500  -0.9926   0.01148   0.00648  -0.0102  0.9914  0.0241  -5.1484   0.0000   0.2295
  -9.000  -0.9312   0.01108   0.00608  -0.0120  0.9894  0.0247  -4.6498   0.0000   0.2275
  -8.500  -0.8760   0.01035   0.00531  -0.0125  0.9853  0.0262  -4.2069   0.0000   0.2267
  -8.000  -0.8233   0.00989   0.00484  -0.0122  0.9792  0.0274  -3.8012   0.0000   0.2266
  -7.500  -0.7733   0.00950   0.00444  -0.0112  0.9712  0.0285  -3.4403   0.0000   0.2275
  -7.000  -0.7228   0.00915   0.00407  -0.0103  0.9626  0.0290  -3.1253   0.0000   0.2282
  -6.500  -0.6727   0.00869   0.00357  -0.0093  0.9537  0.0307  -2.8595   0.0000   0.2291
  -6.000  -0.6211   0.00833   0.00319  -0.0085  0.9444  0.0324  -2.5973   0.0000   0.2296
  -5.500  -0.5684   0.00803   0.00287  -0.0080  0.9342  0.0339  -2.3396   0.0000   0.2296
  -5.000  -0.5155   0.00770   0.00255  -0.0075  0.9238  0.0380  -2.0926   0.0000   0.2294
  -4.500  -0.4628   0.00733   0.00224  -0.0070  0.9120  0.0512  -1.8539   0.0000   0.2292
  -4.000  -0.4101   0.00696   0.00197  -0.0065  0.8995  0.0760  -1.6258   0.0000   0.2287
  -3.500  -0.3566   0.00666   0.00174  -0.0061  0.8868  0.1000  -1.4147   0.0000   0.2276
  -3.000  -0.3039   0.00628   0.00151  -0.0056  0.8730  0.1466  -1.2133   0.0000   0.2264
  -2.500  -0.2511   0.00591   0.00132  -0.0052  0.8586  0.2027  -1.0297   0.0000   0.2246
  -2.000  -0.1997   0.00544   0.00113  -0.0045  0.8422  0.2911  -0.8585   0.0000   0.2229
  -1.500  -0.1534   0.00465   0.00089  -0.0028  0.8178  0.4671  -0.7024   0.0000   0.2272
  -1.000  -0.1034   0.00428   0.00076  -0.0017  0.7861  0.5703  -0.5464   0.0000   0.2291
  -0.500  -0.0516   0.00407   0.00069  -0.0009  0.7523  0.6449  -0.4250   0.0000   0.2284
   0.000  -0.0000   0.00392   0.00067   0.0000  0.7156  0.7156  -0.3384   0.0000   0.4754
   0.500   0.0516   0.00407   0.00069   0.0009  0.6449  0.7523  -0.4250   0.0000   0.2284
   1.000   0.1034   0.00428   0.00076   0.0017  0.5703  0.7861  -0.5464   0.0000   0.2291
   1.500   0.1535   0.00465   0.00089   0.0028  0.4671  0.8178  -0.7024   0.0000   0.2272
   2.000   0.1997   0.00544   0.00113   0.0045  0.2911  0.8422  -0.8585   0.0000   0.2229
   2.500   0.2511   0.00591   0.00132   0.0052  0.2026  0.8586  -1.0297   0.0000   0.2246
   3.000   0.3039   0.00628   0.00151   0.0056  0.1466  0.8730  -1.2134   0.0000   0.2265
   3.500   0.3566   0.00666   0.00174   0.0061  0.1000  0.8868  -1.4148   0.0000   0.2276
   4.000   0.4101   0.00696   0.00197   0.0065  0.0760  0.8995  -1.6259   0.0000   0.2288
   4.500   0.4629   0.00733   0.00224   0.0070  0.0512  0.9119  -1.8540   0.0000   0.2292
   5.000   0.5156   0.00770   0.00255   0.0075  0.0380  0.9238  -2.0927   0.0000   0.2295
   5.500   0.5685   0.00803   0.00287   0.0080  0.0338  0.9342  -2.3397   0.0000   0.2296
   6.000   0.6212   0.00833   0.00319   0.0085  0.0324  0.9444  -2.5975   0.0000   0.2296
   6.500   0.6728   0.00869   0.00357   0.0092  0.0307  0.9536  -2.8597   0.0000   0.2292
   7.000   0.7230   0.00915   0.00407   0.0103  0.0290  0.9626  -3.1256   0.0000   0.2283
   7.500   0.7735   0.00950   0.00444   0.0112  0.0285  0.9712  -3.4407   0.0000   0.2275
   8.000   0.8234   0.00989   0.00484   0.0122  0.0274  0.9792  -3.8016   0.0000   0.2267
   8.500   0.8762   0.01035   0.00531   0.0125  0.0262  0.9853  -4.2073   0.0000   0.2267
   9.000   0.9314   0.01108   0.00608   0.0120  0.0247  0.9894  -4.6504   0.0000   0.2276
   9.500   0.9927   0.01148   0.00648   0.0102  0.0241  0.9914  -5.1490   0.0000   0.2296
  10.000   1.0523   0.01199   0.00700   0.0087  0.0231  0.9936  -5.6757   0.0000   0.2309
  10.500   1.1105   0.01254   0.00755   0.0075  0.0221  0.9955  -6.2633   0.0000   0.2318
  11.000   1.1682   0.01331   0.00836   0.0061  0.0208  0.9967  -6.8772   0.0000   0.2326
  11.500   1.2278   0.01378   0.00884   0.0045  0.0200  0.9981  -7.5345   0.0000   0.2334
  12.000   1.2855   0.01434   0.00939   0.0032  0.0188  0.9995  -8.2060   0.0000   0.2339
  12.500   1.3206   0.01501   0.01009   0.0066  0.0175  1.0000  -8.7563   0.0000   0.2306
  13.000   1.3489   0.01549   0.01062   0.0115  0.0169  1.0000  -9.2829   0.0000   0.2263
  13.500   1.3794   0.01611   0.01126   0.0158  0.0158  1.0000  -9.8358   0.0000   0.2226
  14.000   1.4087   0.01694   0.01213   0.0199  0.0146  1.0000  -10.3881   0.0000   0.2190
  14.500   1.4415   0.01781   0.01306   0.0231  0.0136  1.0000  -10.9778   0.0000   0.2162
  15.000   1.4708   0.01900   0.01430   0.0265  0.0122  1.0000  -11.5505   0.0000   0.2134
  15.500   1.5000   0.02023   0.01560   0.0295  0.0114  1.0000  -12.1347   0.0000   0.2107
  16.000   1.5244   0.02182   0.01727   0.0329  0.0105  1.0000  -12.6886   0.0000   0.2079
  16.500   1.5465   0.02362   0.01917   0.0360  0.0098  1.0000  -13.2531   0.0000   0.2052
  17.000   1.5669   0.02561   0.02128   0.0389  0.0093  1.0000  -13.8142   0.0000   0.2026
  17.500   1.5816   0.02816   0.02394   0.0417  0.0088  1.0000  -14.3302   0.0000   0.2000
  18.000   1.5884   0.03153   0.02746   0.0443  0.0082  1.0000  -14.7717   0.0000   0.1973
  18.500   1.5964   0.03508   0.03115   0.0459  0.0080  1.0000  -15.2290   0.0000   0.1952
  19.000   1.5994   0.03940   0.03563   0.0468  0.0077  1.0000  -15.6458   0.0000   0.1935
  19.500   1.5941   0.04504   0.04145   0.0467  0.0075  1.0000  -15.9780   0.0000   0.1921
  20.000   1.5791   0.05251   0.04912   0.0450  0.0073  1.0000  -16.1887   0.0000   0.1915
  20.500   1.5500   0.06280   0.05964   0.0409  0.0071  1.0000  -16.2115   0.0000   0.1921
  21.000   1.4969   0.07799   0.07513   0.0332  0.0071  1.0000  -15.8925   0.0000   0.1948
  21.500   1.3724   0.10698   0.10461   0.0172  0.0074  1.0000  -14.5222   0.0000   0.2028
  22.000   1.0472   0.18140   0.17985  -0.0280  0.0082  1.0000  -9.4262   0.0000   0.2418
  22.500   1.0102   0.20004   0.19864  -0.0404  0.0080  1.0000  -8.5951   0.0000   0.2544
  23.000   0.9881   0.21614   0.21484  -0.0512  0.0075  1.0000  -7.9184   0.0000   0.2656
  23.500   0.9830   0.22772   0.22646  -0.0594  0.0069  1.0000  -7.5973   0.0000   0.2734
  24.000   0.9803   0.23906   0.23785  -0.0673  0.0063  1.0000  -7.2545   0.0000   0.2809
  24.500   0.9727   0.25311   0.25197  -0.0765  0.0056  1.0000  -6.6036   0.0000   0.2906


