xflr5 v6.33

 Calculated polar for: NACA 0012 v1

 1 1 Reynolds number fixed          Mach number fixed         

 xtrf =   1.000 (top)        1.000 (bottom)
 Mach =   0.000     Re =     4.000 e 6     Ncrit =   9.000

  alpha     CL        CD       CDp       Cm    Top Xtr Bot Xtr   Cpmin    Chinge    XCp    
 ------- -------- --------- --------- -------- ------- ------- -------- --------- ---------
 -27.000  -1.1499   0.26505   0.26404   0.1226  1.0000  0.0055  -8.1885   0.0000   0.3109
 -26.500  -1.1466   0.25679   0.25574   0.1152  1.0000  0.0059  -8.3802   0.0000   0.3058
 -26.000  -1.1466   0.24761   0.24651   0.1071  1.0000  0.0063  -8.6537   0.0000   0.2997
 -25.500  -1.1477   0.23818   0.23702   0.0989  1.0000  0.0065  -8.9094   0.0000   0.2934
 -25.000  -1.1492   0.22893   0.22770   0.0909  1.0000  0.0067  -9.1212   0.0000   0.2873
 -24.500  -1.1529   0.21917   0.21787   0.0826  1.0000  0.0069  -9.3416   0.0000   0.2808
 -24.000  -1.1626   0.20801   0.20662   0.0733  1.0000  0.0071  -9.6534   0.0000   0.2732
 -23.500  -1.1907   0.19269   0.19118   0.0609  1.0000  0.0074  -10.2667   0.0000   0.2621
 -23.000  -1.2437   0.17261   0.17091   0.0452  1.0000  0.0075  -11.1894   0.0000   0.2480
 -22.500  -1.3313   0.14692   0.14491   0.0263  1.0000  0.0075  -12.4465   0.0000   0.2323
 -22.000  -1.4314   0.12091   0.11856   0.0092  1.0000  0.0073  -13.6263   0.0000   0.2200
 -21.500  -1.5250   0.09780   0.09512  -0.0041  1.0000  0.0072  -14.5309   0.0000   0.2123
 -21.000  -1.6023   0.07854   0.07556  -0.0141  1.0000  0.0072  -15.1373   0.0000   0.2076
 -20.500  -1.6583   0.06344   0.06019  -0.0215  1.0000  0.0072  -15.4489   0.0000   0.2049
 -20.000  -1.6943   0.05195   0.04848  -0.0267  1.0000  0.0073  -15.5149   0.0000   0.2036
 -19.500  -1.7134   0.04342   0.03976  -0.0298  1.0000  0.0075  -15.3851   0.0000   0.2034
 -19.000  -1.7196   0.03707   0.03325  -0.0313  1.0000  0.0077  -15.1132   0.0000   0.2039
 -18.500  -1.7166   0.03229   0.02834  -0.0315  1.0000  0.0079  -14.7465   0.0000   0.2050
 -18.000  -1.7069   0.02865   0.02458  -0.0305  1.0000  0.0080  -14.3158   0.0000   0.2066
 -17.500  -1.6924   0.02583   0.02166  -0.0287  1.0000  0.0082  -13.8423   0.0000   0.2087
 -17.000  -1.6736   0.02364   0.01936  -0.0263  1.0000  0.0084  -13.3387   0.0000   0.2110
 -16.500  -1.6511   0.02192   0.01755  -0.0234  1.0000  0.0085  -12.8274   0.0000   0.2136
 -16.000  -1.6314   0.02019   0.01573  -0.0195  1.0000  0.0089  -12.3510   0.0000   0.2168
 -15.500  -1.6068   0.01889   0.01436  -0.0154  1.0000  0.0093  -11.8385   0.0000   0.2201
 -15.000  -1.5723   0.01782   0.01324  -0.0128  1.0000  0.0097  -11.2664   0.0000   0.2225
 -14.500  -1.5326   0.01689   0.01226  -0.0109  1.0000  0.0100  -10.6720   0.0000   0.2245
 -14.000  -1.4901   0.01607   0.01140  -0.0093  1.0000  0.0102  -10.0718   0.0000   0.2262
 -13.500  -1.4484   0.01508   0.01036  -0.0076  1.0000  0.0111  -9.4986   0.0000   0.2281
 -13.000  -1.4032   0.01431   0.00956  -0.0062  1.0000  0.0117  -8.9131   0.0000   0.2297
 -12.500  -1.3562   0.01365   0.00887  -0.0051  1.0000  0.0121  -8.3321   0.0000   0.2312
 -12.000  -1.3099   0.01288   0.00809  -0.0038  1.0000  0.0131  -7.7949   0.0000   0.2329
 -11.500  -1.2623   0.01227   0.00746  -0.0027  1.0000  0.0139  -7.2659   0.0000   0.2344
 -11.000  -1.2153   0.01168   0.00686  -0.0013  1.0000  0.0148  -6.7564   0.0000   0.2362
 -10.500  -1.1699   0.01114   0.00631   0.0005  1.0000  0.0160  -6.2687   0.0000   0.2385
 -10.000  -1.1260   0.01064   0.00581   0.0027  1.0000  0.0172  -5.8033   0.0000   0.2411
  -9.500  -1.0733   0.01015   0.00532   0.0031  0.9994  0.0187  -5.3252   0.0000   0.2422
  -9.000  -1.0112   0.00962   0.00482   0.0014  0.9979  0.0210  -4.8361   0.0000   0.2413
  -8.500  -0.9480   0.00914   0.00436  -0.0005  0.9964  0.0236  -4.3614   0.0000   0.2400
  -8.000  -0.8849   0.00868   0.00394  -0.0024  0.9943  0.0267  -3.9166   0.0000   0.2384
  -7.500  -0.8242   0.00825   0.00355  -0.0036  0.9897  0.0310  -3.5094   0.0000   0.2372
  -7.000  -0.7680   0.00787   0.00320  -0.0037  0.9805  0.0361  -3.1368   0.0000   0.2372
  -6.500  -0.7153   0.00752   0.00288  -0.0030  0.9663  0.0427  -2.8047   0.0000   0.2384
  -6.000  -0.6626   0.00720   0.00258  -0.0022  0.9483  0.0514  -2.4906   0.0000   0.2396
  -5.500  -0.6092   0.00690   0.00229  -0.0016  0.9259  0.0630  -2.1985   0.0000   0.2407
  -5.000  -0.5551   0.00662   0.00201  -0.0012  0.8988  0.0787  -1.9282   0.0000   0.2416
  -4.500  -0.5006   0.00635   0.00176  -0.0008  0.8666  0.0999  -1.6788   0.0000   0.2424
  -4.000  -0.4458   0.00611   0.00153  -0.0005  0.8295  0.1271  -1.4518   0.0000   0.2432
  -3.000  -0.3355   0.00568   0.00116  -0.0001  0.7451  0.1991  -1.0663   0.0000   0.2444
  -2.500  -0.2800   0.00550   0.00101  -0.0000  0.7002  0.2417  -0.9071   0.0000   0.2449
  -2.000  -0.2244   0.00536   0.00090   0.0000  0.6544  0.2864  -0.7704   0.0000   0.2453
  -1.500  -0.1684   0.00525   0.00081   0.0000  0.6085  0.3323  -0.6548   0.0000   0.2456
  -1.000  -0.1124   0.00517   0.00075   0.0000  0.5628  0.3786  -0.5588   0.0000   0.2458
  -0.500  -0.0562   0.00512   0.00071   0.0000  0.5170  0.4249  -0.4794   0.0000   0.2460
   0.000   0.0000   0.00510   0.00071  -0.0000  0.4710  0.4710  -0.4129   0.0000   0.3670
   0.500   0.0562   0.00512   0.00071  -0.0000  0.4249  0.5170  -0.4794   0.0000   0.2460
   1.000   0.1124   0.00517   0.00075  -0.0000  0.3786  0.5628  -0.5588   0.0000   0.2458
   1.500   0.1684   0.00525   0.00081  -0.0000  0.3323  0.6085  -0.6548   0.0000   0.2456
   2.500   0.2800   0.00550   0.00101   0.0001  0.2417  0.7002  -0.9071   0.0000   0.2449
   3.000   0.3355   0.00568   0.00116   0.0002  0.1991  0.7451  -1.0663   0.0000   0.2444
   3.500   0.3908   0.00588   0.00133   0.0004  0.1606  0.7887  -1.2471   0.0000   0.2439
   4.000   0.4458   0.00611   0.00153   0.0006  0.1271  0.8295  -1.4519   0.0000   0.2432
   4.500   0.5006   0.00635   0.00176   0.0009  0.0999  0.8666  -1.6789   0.0000   0.2425
   5.000   0.5551   0.00662   0.00201   0.0013  0.0787  0.8988  -1.9283   0.0000   0.2416
   5.500   0.6092   0.00690   0.00229   0.0018  0.0630  0.9259  -2.1986   0.0000   0.2407
   6.500   0.7154   0.00752   0.00288   0.0032  0.0427  0.9663  -2.8048   0.0000   0.2384
   7.000   0.7680   0.00787   0.00320   0.0039  0.0361  0.9805  -3.1369   0.0000   0.2372
   7.500   0.8243   0.00825   0.00355   0.0038  0.0310  0.9897  -3.5096   0.0000   0.2373
   8.000   0.8849   0.00868   0.00394   0.0026  0.0267  0.9943  -3.9167   0.0000   0.2384
   8.500   0.9481   0.00914   0.00436   0.0008  0.0236  0.9964  -4.3616   0.0000   0.2400
   9.000   1.0113   0.00962   0.00482  -0.0010  0.0210  0.9979  -4.8363   0.0000   0.2413
   9.500   1.0734   0.01015   0.00532  -0.0027  0.0187  0.9994  -5.3254   0.0000   0.2422
  10.000   1.1259   0.01064   0.00581  -0.0022  0.0172  1.0000  -5.8029   0.0000   0.2411
  10.500   1.1699   0.01113   0.00631   0.0000  0.0160  1.0000  -6.2685   0.0000   0.2384
  11.000   1.2153   0.01168   0.00686   0.0019  0.0148  1.0000  -6.7564   0.0000   0.2362
  11.500   1.2624   0.01227   0.00746   0.0033  0.0139  1.0000  -7.2662   0.0000   0.2344
  12.000   1.3100   0.01289   0.00809   0.0045  0.0131  1.0000  -7.7954   0.0000   0.2329
  12.500   1.3563   0.01365   0.00887   0.0058  0.0121  1.0000  -8.3329   0.0000   0.2312
  13.000   1.4034   0.01431   0.00956   0.0070  0.0117  1.0000  -8.9141   0.0000   0.2298
  13.500   1.4486   0.01508   0.01036   0.0084  0.0111  1.0000  -9.4998   0.0000   0.2282
  14.000   1.4903   0.01608   0.01140   0.0101  0.0102  1.0000  -10.0733   0.0000   0.2263
  14.500   1.5329   0.01689   0.01226   0.0118  0.0100  1.0000  -10.6738   0.0000   0.2245
  15.000   1.5727   0.01782   0.01324   0.0137  0.0097  1.0000  -11.2686   0.0000   0.2226
  15.500   1.6073   0.01889   0.01436   0.0164  0.0093  1.0000  -11.8417   0.0000   0.2202
  16.000   1.6320   0.02019   0.01573   0.0205  0.0089  1.0000  -12.3550   0.0000   0.2169
  16.500   1.6518   0.02191   0.01755   0.0244  0.0085  1.0000  -12.8326   0.0000   0.2137
  17.000   1.6744   0.02363   0.01935   0.0273  0.0084  1.0000  -13.3449   0.0000   0.2111
  17.500   1.6933   0.02582   0.02164   0.0298  0.0082  1.0000  -13.8497   0.0000   0.2088
  18.000   1.7081   0.02862   0.02456   0.0317  0.0080  1.0000  -14.3245   0.0000   0.2067
  18.500   1.7179   0.03225   0.02831   0.0326  0.0079  1.0000  -14.7568   0.0000   0.2051
  19.000   1.7211   0.03702   0.03321   0.0325  0.0077  1.0000  -15.1252   0.0000   0.2040
  19.500   1.7151   0.04336   0.03970   0.0310  0.0075  1.0000  -15.3988   0.0000   0.2035
  20.000   1.6961   0.05189   0.04841   0.0278  0.0073  1.0000  -15.5301   0.0000   0.2037
  20.500   1.6602   0.06336   0.06011   0.0227  0.0072  1.0000  -15.4650   0.0000   0.2051
  21.000   1.6043   0.07847   0.07548   0.0152  0.0072  1.0000  -15.1539   0.0000   0.2078
  21.500   1.5269   0.09774   0.09506   0.0051  0.0072  1.0000  -14.5475   0.0000   0.2124
  22.000   1.4332   0.12089   0.11854  -0.0082  0.0073  1.0000  -13.6413   0.0000   0.2202
  22.500   1.3328   0.14701   0.14500  -0.0256  0.0075  1.0000  -12.4581   0.0000   0.2324
  23.000   1.2449   0.17281   0.17111  -0.0447  0.0075  1.0000  -11.1961   0.0000   0.2482
  23.500   1.1918   0.19292   0.19141  -0.0605  0.0074  1.0000  -10.2719   0.0000   0.2623
  24.000   1.1638   0.20835   0.20697  -0.0729  0.0071  1.0000  -9.6585   0.0000   0.2734
  24.500   1.1542   0.21951   0.21820  -0.0823  0.0068  1.0000  -9.3489   0.0000   0.2810
  25.000   1.1505   0.22936   0.22813  -0.0906  0.0067  1.0000  -9.1273   0.0000   0.2875
  25.500   1.1491   0.23873   0.23758  -0.0987  0.0065  1.0000  -8.9161   0.0000   0.2936
  26.000   1.1480   0.24826   0.24716  -0.1070  0.0062  1.0000  -8.6584   0.0000   0.2999
  26.500   1.1481   0.25747   0.25643  -0.1151  0.0059  1.0000  -8.3875   0.0000   0.3059
  27.000   1.1514   0.26588   0.26487  -0.1226  0.0055  1.0000  -8.1908   0.0000   0.3111


