xflr5 v6.33

 Calculated polar for: NACA 0012-64

 1 1 Reynolds number fixed          Mach number fixed         

 xtrf =   1.000 (top)        1.000 (bottom)
 Mach =   0.000     Re =     1.400 e 6     Ncrit =   9.000

  alpha     CL        CD       CDp       Cm    Top Xtr Bot Xtr   Cpmin    Chinge    XCp    
 ------- -------- --------- --------- -------- ------- ------- -------- --------- ---------
 -28.500  -1.0367   0.33300   0.33153   0.1279  1.0000  0.0036  -2.2165   0.0000   0.3304
 -26.000  -0.5974   0.26328   0.26201   0.0438  1.0000  0.0052  -1.4141   0.0000   0.2998
 -25.500  -0.5901   0.25886   0.25757   0.0411  1.0000  0.0055  -1.3388   0.0000   0.2971
 -25.000  -0.5834   0.25389   0.25259   0.0384  1.0000  0.0059  -1.3145   0.0000   0.2940
 -24.500  -0.5819   0.24542   0.24412   0.0355  1.0000  0.0066  -1.6045   0.0000   0.2890
 -24.000  -0.5735   0.24155   0.24023   0.0330  1.0000  0.0067  -1.4854   0.0000   0.2866
 -23.500  -0.5657   0.23715   0.23582   0.0304  1.0000  0.0070  -1.4231   0.0000   0.2836
 -22.000  -0.9507   0.20633   0.20474   0.0430  1.0000  0.0100  -7.2249   0.0000   0.2617
 -21.500  -0.9081   0.20995   0.20841   0.0438  1.0000  0.0100  -6.2413   0.0000   0.2667
 -21.000  -0.8783   0.20955   0.20803   0.0423  1.0000  0.0100  -5.6097   0.0000   0.2682
 -20.500  -0.8510   0.20839   0.20687   0.0403  1.0000  0.0099  -5.0481   0.0000   0.2690
 -20.000  -0.8251   0.20677   0.20525   0.0381  1.0000  0.0098  -4.5262   0.0000   0.2692
 -19.500  -0.7952   0.20698   0.20545   0.0365  1.0000  0.0093  -3.8497   0.0000   0.2705
 -18.500  -1.4777   0.04740   0.04367  -0.0469  1.0000  0.0108  -13.9676   0.0000   0.1919
 -18.000  -1.4856   0.04122   0.03729  -0.0475  1.0000  0.0112  -13.7079   0.0000   0.1930
 -17.500  -1.4840   0.03658   0.03247  -0.0468  1.0000  0.0116  -13.3467   0.0000   0.1946
 -17.000  -1.4750   0.03300   0.02871  -0.0453  1.0000  0.0121  -12.9153   0.0000   0.1966
 -16.500  -1.4675   0.02958   0.02514  -0.0429  1.0000  0.0129  -12.4989   0.0000   0.1991
 -16.000  -1.4492   0.02722   0.02267  -0.0405  1.0000  0.0137  -11.9890   0.0000   0.2015
 -15.500  -1.4259   0.02536   0.02067  -0.0380  1.0000  0.0145  -11.4643   0.0000   0.2038
 -15.000  -1.4038   0.02348   0.01868  -0.0349  1.0000  0.0156  -10.9598   0.0000   0.2065
 -14.500  -1.3737   0.02221   0.01736  -0.0323  1.0000  0.0166  -10.3951   0.0000   0.2087
 -14.000  -1.3406   0.02119   0.01622  -0.0299  1.0000  0.0175  -9.8227   0.0000   0.2109
 -13.500  -1.3117   0.01996   0.01493  -0.0266  1.0000  0.0187  -9.2930   0.0000   0.2138
 -13.000  -1.2750   0.01933   0.01427  -0.0241  1.0000  0.0198  -8.7126   0.0000   0.2160
 -12.500  -1.2402   0.01878   0.01364  -0.0209  1.0000  0.0207  -8.1629   0.0000   0.2188
 -12.000  -1.2211   0.01779   0.01256  -0.0146  1.0000  0.0217  -7.7312   0.0000   0.2244
 -11.500  -1.1942   0.01723   0.01198  -0.0096  1.0000  0.0226  -7.2516   0.0000   0.2291
 -11.000  -1.1686   0.01675   0.01145  -0.0041  1.0000  0.0235  -6.7944   0.0000   0.2343
 -10.500  -1.1316   0.01622   0.01084  -0.0010  0.9995  0.0244  -6.2915   0.0000   0.2376
 -10.000  -1.0758   0.01510   0.00964  -0.0022  0.9973  0.0255  -5.7242   0.0000   0.2371
  -9.500  -1.0157   0.01435   0.00888  -0.0041  0.9956  0.0270  -5.1897   0.0000   0.2358
  -9.000  -0.9567   0.01365   0.00813  -0.0056  0.9931  0.0282  -4.7059   0.0000   0.2346
  -8.500  -0.8956   0.01307   0.00750  -0.0074  0.9905  0.0292  -4.2332   0.0000   0.2327
  -8.000  -0.8355   0.01201   0.00640  -0.0092  0.9884  0.0311  -3.8071   0.0000   0.2304
  -7.500  -0.7705   0.01138   0.00576  -0.0119  0.9872  0.0328  -3.4013   0.0000   0.2265
  -7.000  -0.7125   0.01084   0.00518  -0.0128  0.9823  0.0339  -3.0681   0.0000   0.2244
  -6.500  -0.6526   0.01014   0.00446  -0.0141  0.9787  0.0360  -2.7754   0.0000   0.2211
  -6.000  -0.6001   0.00966   0.00397  -0.0136  0.9709  0.0384  -2.5202   0.0000   0.2204
  -5.500  -0.5491   0.00922   0.00352  -0.0128  0.9623  0.0420  -2.2776   0.0000   0.2203
  -5.000  -0.4990   0.00875   0.00311  -0.0116  0.9530  0.0519  -2.0441   0.0000   0.2205
  -4.500  -0.4494   0.00825   0.00274  -0.0105  0.9427  0.0790  -1.8164   0.0000   0.2208
  -4.000  -0.3986   0.00781   0.00241  -0.0095  0.9323  0.1084  -1.5985   0.0000   0.2205
  -3.500  -0.3483   0.00731   0.00211  -0.0085  0.9204  0.1617  -1.3961   0.0000   0.2202
  -3.000  -0.2980   0.00679   0.00183  -0.0076  0.9082  0.2298  -1.2006   0.0000   0.2195
  -2.500  -0.2509   0.00601   0.00153  -0.0061  0.8947  0.3612  -1.0284   0.0000   0.2208
  -2.000  -0.2063   0.00511   0.00125  -0.0041  0.8802  0.5392  -0.8683   0.0000   0.2255
  -1.500  -0.1569   0.00464   0.00111  -0.0028  0.8655  0.6426  -0.7062   0.0000   0.2278
  -1.000  -0.1052   0.00442   0.00103  -0.0018  0.8465  0.7055  -0.5475   0.0000   0.2289
  -0.500  -0.0532   0.00429   0.00098  -0.0007  0.8193  0.7552  -0.4259   0.0000   0.2316
   0.000  -0.0000   0.00426   0.00096   0.0000  0.7881  0.7881  -0.3380   0.0000   0.4853
   0.500   0.0532   0.00429   0.00098   0.0007  0.7552  0.8192  -0.4259   0.0000   0.2316
   1.000   0.1052   0.00442   0.00103   0.0018  0.7055  0.8465  -0.5475   0.0000   0.2289
   1.500   0.1569   0.00464   0.00111   0.0028  0.6426  0.8655  -0.7062   0.0000   0.2278
   2.000   0.2063   0.00511   0.00125   0.0041  0.5391  0.8802  -0.8683   0.0000   0.2255
   2.500   0.2509   0.00601   0.00153   0.0061  0.3612  0.8947  -1.0284   0.0000   0.2208
   3.000   0.2981   0.00679   0.00183   0.0076  0.2298  0.9081  -1.2006   0.0000   0.2195
   3.500   0.3484   0.00731   0.00211   0.0085  0.1617  0.9204  -1.3962   0.0000   0.2202
   4.000   0.3986   0.00781   0.00241   0.0095  0.1084  0.9323  -1.5986   0.0000   0.2205
   4.500   0.4494   0.00825   0.00274   0.0105  0.0790  0.9427  -1.8165   0.0000   0.2209
   5.000   0.4991   0.00875   0.00311   0.0116  0.0519  0.9529  -2.0442   0.0000   0.2205
   5.500   0.5491   0.00922   0.00352   0.0128  0.0420  0.9623  -2.2777   0.0000   0.2203
   6.000   0.6002   0.00966   0.00397   0.0136  0.0384  0.9709  -2.5204   0.0000   0.2204
   6.500   0.6527   0.01014   0.00446   0.0141  0.0360  0.9787  -2.7756   0.0000   0.2211
   7.000   0.7126   0.01084   0.00518   0.0128  0.0339  0.9823  -3.0683   0.0000   0.2244
   7.500   0.7706   0.01138   0.00576   0.0118  0.0328  0.9872  -3.4016   0.0000   0.2266
   8.000   0.8356   0.01201   0.00640   0.0092  0.0311  0.9884  -3.8075   0.0000   0.2304
   8.500   0.8957   0.01307   0.00750   0.0074  0.0292  0.9905  -4.2336   0.0000   0.2327
   9.000   0.9568   0.01365   0.00813   0.0056  0.0282  0.9931  -4.7064   0.0000   0.2346
   9.500   1.0159   0.01435   0.00888   0.0041  0.0270  0.9956  -5.1905   0.0000   0.2358
  10.000   1.0760   0.01510   0.00964   0.0022  0.0255  0.9974  -5.7251   0.0000   0.2372
  11.000   1.1685   0.01675   0.01144   0.0042  0.0235  1.0000  -6.7938   0.0000   0.2343
  11.500   1.1941   0.01723   0.01198   0.0096  0.0226  1.0000  -7.2514   0.0000   0.2291
  12.000   1.2212   0.01779   0.01256   0.0146  0.0217  1.0000  -7.7317   0.0000   0.2244
  12.500   1.2407   0.01878   0.01364   0.0208  0.0207  1.0000  -8.1657   0.0000   0.2189
  13.000   1.2756   0.01932   0.01426   0.0239  0.0198  1.0000  -8.7162   0.0000   0.2161
  13.500   1.3124   0.01996   0.01493   0.0264  0.0187  1.0000  -9.2974   0.0000   0.2139
  14.000   1.3414   0.02118   0.01622   0.0297  0.0175  1.0000  -9.8280   0.0000   0.2110
  14.500   1.3746   0.02221   0.01735   0.0322  0.0166  1.0000  -10.4011   0.0000   0.2089
  15.000   1.4048   0.02347   0.01868   0.0347  0.0156  1.0000  -10.9666   0.0000   0.2066
  15.500   1.4270   0.02534   0.02065   0.0378  0.0145  1.0000  -11.4724   0.0000   0.2039
  16.000   1.4505   0.02720   0.02265   0.0403  0.0137  1.0000  -11.9982   0.0000   0.2016
  16.500   1.4688   0.02957   0.02512   0.0427  0.0129  1.0000  -12.5094   0.0000   0.1993
  17.000   1.4767   0.03297   0.02867   0.0451  0.0121  1.0000  -12.9281   0.0000   0.1968
  17.500   1.4858   0.03654   0.03243   0.0465  0.0116  1.0000  -13.3612   0.0000   0.1948
  18.000   1.4876   0.04117   0.03724   0.0472  0.0111  1.0000  -13.7241   0.0000   0.1932
  18.500   1.4798   0.04735   0.04362   0.0466  0.0107  1.0000  -13.9849   0.0000   0.1921
  19.000   1.4576   0.05623   0.05273   0.0438  0.0104  1.0000  -14.0735   0.0000   0.1921
  19.500   1.4148   0.06953   0.06634   0.0374  0.0102  1.0000  -13.8914   0.0000   0.1943
  20.000   1.3418   0.08971   0.08691   0.0262  0.0104  1.0000  -13.2711   0.0000   0.1996
  20.500   1.1887   0.12568   0.12342   0.0066  0.0111  1.0000  -11.4385   0.0000   0.2124
  21.000   1.0661   0.15910   0.15719  -0.0133  0.0114  1.0000  -9.6586   0.0000   0.2296
  21.500   0.9982   0.18436   0.18266  -0.0292  0.0110  1.0000  -8.3944   0.0000   0.2459
  22.000   0.9664   0.20251   0.20089  -0.0409  0.0102  1.0000  -7.5957   0.0000   0.2585


