xflr5 v6.33

 Calculated polar for: NACA 0012-64

 1 1 Reynolds number fixed          Mach number fixed         

 xtrf =   1.000 (top)        1.000 (bottom)
 Mach =   0.000     Re =     2.200 e 6     Ncrit =   9.000

  alpha     CL        CD       CDp       Cm    Top Xtr Bot Xtr   Cpmin    Chinge    XCp    
 ------- -------- --------- --------- -------- ------- ------- -------- --------- ---------
 -26.000  -0.9644   0.30543   0.30423   0.1029  1.0000  0.0035  -2.3557   0.0000   0.3199
 -23.500  -0.9614   0.23390   0.23263   0.0627  1.0000  0.0070  -6.9312   0.0000   0.2788
 -23.000  -0.9772   0.21833   0.21698   0.0524  1.0000  0.0078  -7.6422   0.0000   0.2676
 -22.500  -0.9978   0.20251   0.20105   0.0418  1.0000  0.0084  -8.3237   0.0000   0.2564
 -22.000  -1.0282   0.18530   0.18375   0.0302  1.0000  0.0090  -9.0563   0.0000   0.2446
 -21.500  -1.1265   0.15390   0.15208   0.0099  1.0000  0.0090  -10.8259   0.0000   0.2245
 -21.000  -1.3862   0.09662   0.09406  -0.0231  1.0000  0.0079  -14.4328   0.0000   0.2000
 -20.500  -1.4895   0.07167   0.06867  -0.0369  1.0000  0.0078  -15.4632   0.0000   0.1935
 -20.000  -1.5298   0.05884   0.05556  -0.0430  1.0000  0.0079  -15.6068   0.0000   0.1917
 -19.500  -1.5495   0.05009   0.04659  -0.0461  1.0000  0.0080  -15.4715   0.0000   0.1915
 -19.000  -1.5590   0.04347   0.03976  -0.0473  1.0000  0.0082  -15.2054   0.0000   0.1923
 -18.500  -1.5696   0.03749   0.03358  -0.0469  1.0000  0.0086  -14.9524   0.0000   0.1941
 -18.000  -1.5684   0.03317   0.02911  -0.0454  1.0000  0.0090  -14.5690   0.0000   0.1962
 -17.500  -1.5595   0.02985   0.02565  -0.0433  1.0000  0.0095  -14.1102   0.0000   0.1985
 -17.000  -1.5442   0.02726   0.02291  -0.0409  1.0000  0.0099  -13.5946   0.0000   0.2009
 -16.500  -1.5285   0.02484   0.02036  -0.0379  1.0000  0.0106  -13.0859   0.0000   0.2037
 -16.000  -1.5086   0.02284   0.01828  -0.0347  1.0000  0.0114  -12.5427   0.0000   0.2064
 -15.500  -1.4830   0.02131   0.01664  -0.0317  1.0000  0.0121  -11.9829   0.0000   0.2091
 -15.000  -1.4568   0.01985   0.01511  -0.0284  1.0000  0.0133  -11.4287   0.0000   0.2119
 -14.500  -1.4259   0.01874   0.01395  -0.0254  1.0000  0.0144  -10.8463   0.0000   0.2145
 -14.000  -1.3946   0.01772   0.01286  -0.0222  1.0000  0.0155  -10.2740   0.0000   0.2173
 -13.500  -1.3625   0.01692   0.01203  -0.0187  1.0000  0.0166  -9.7035   0.0000   0.2203
 -13.000  -1.3324   0.01633   0.01138  -0.0144  1.0000  0.0175  -9.1569   0.0000   0.2240
 -12.500  -1.3052   0.01563   0.01063  -0.0095  1.0000  0.0185  -8.6459   0.0000   0.2284
 -12.000  -1.2787   0.01518   0.01017  -0.0042  1.0000  0.0195  -8.1434   0.0000   0.2331
 -11.500  -1.2316   0.01471   0.00968  -0.0032  0.9992  0.0205  -7.5346   0.0000   0.2345
 -11.000  -1.1741   0.01401   0.00893  -0.0045  0.9976  0.0215  -6.8947   0.0000   0.2340
 -10.500  -1.1155   0.01331   0.00823  -0.0060  0.9961  0.0227  -6.2726   0.0000   0.2332
 -10.000  -1.0552   0.01275   0.00765  -0.0077  0.9949  0.0237  -5.6746   0.0000   0.2319
  -9.500  -0.9967   0.01227   0.00715  -0.0090  0.9923  0.0245  -5.1506   0.0000   0.2308
  -9.000  -0.9377   0.01150   0.00634  -0.0105  0.9902  0.0258  -4.6720   0.0000   0.2293
  -8.500  -0.8764   0.01089   0.00573  -0.0123  0.9883  0.0271  -4.1980   0.0000   0.2269
  -8.000  -0.8201   0.01041   0.00523  -0.0129  0.9836  0.0283  -3.7807   0.0000   0.2257
  -7.500  -0.7645   0.01001   0.00482  -0.0132  0.9785  0.0290  -3.4023   0.0000   0.2247
  -7.000  -0.7165   0.00943   0.00419  -0.0118  0.9698  0.0306  -3.1060   0.0000   0.2260
  -6.500  -0.6669   0.00901   0.00376  -0.0106  0.9608  0.0321  -2.8360   0.0000   0.2269
  -6.000  -0.6156   0.00866   0.00339  -0.0098  0.9517  0.0335  -2.5760   0.0000   0.2273
  -5.500  -0.5639   0.00831   0.00301  -0.0091  0.9421  0.0358  -2.3258   0.0000   0.2275
  -5.000  -0.5115   0.00797   0.00268  -0.0084  0.9319  0.0397  -2.0796   0.0000   0.2274
  -4.500  -0.4600   0.00753   0.00234  -0.0077  0.9208  0.0596  -1.8457   0.0000   0.2275
  -4.000  -0.4073   0.00719   0.00207  -0.0072  0.9087  0.0815  -1.6190   0.0000   0.2269
  -3.500  -0.3545   0.00683   0.00182  -0.0067  0.8963  0.1122  -1.4101   0.0000   0.2259
  -3.000  -0.3024   0.00640   0.00158  -0.0061  0.8830  0.1657  -1.2100   0.0000   0.2248
  -2.500  -0.2501   0.00600   0.00138  -0.0055  0.8689  0.2283  -1.0277   0.0000   0.2230
  -2.000  -0.2009   0.00534   0.00114  -0.0044  0.8534  0.3533  -0.8605   0.0000   0.2232
  -1.500  -0.1547   0.00457   0.00091  -0.0027  0.8329  0.5243  -0.7041   0.0000   0.2278
  -1.000  -0.1040   0.00424   0.00080  -0.0017  0.8044  0.6146  -0.5470   0.0000   0.2293
  -0.500  -0.0521   0.00407   0.00074  -0.0008  0.7727  0.6793  -0.4253   0.0000   0.2294
   0.000  -0.0000   0.00395   0.00072   0.0000  0.7392  0.7392  -0.3383   0.0000   0.4746
   0.500   0.0521   0.00407   0.00074   0.0008  0.6793  0.7727  -0.4253   0.0000   0.2294
   1.000   0.1040   0.00424   0.00080   0.0017  0.6146  0.8044  -0.5470   0.0000   0.2293
   1.500   0.1547   0.00457   0.00091   0.0027  0.5243  0.8329  -0.7041   0.0000   0.2278
   2.000   0.2009   0.00534   0.00114   0.0044  0.3533  0.8534  -0.8605   0.0000   0.2232
   2.500   0.2501   0.00600   0.00138   0.0055  0.2283  0.8689  -1.0277   0.0000   0.2230
   3.000   0.3024   0.00640   0.00158   0.0061  0.1657  0.8830  -1.2101   0.0000   0.2248
   3.500   0.3546   0.00683   0.00182   0.0067  0.1122  0.8963  -1.4101   0.0000   0.2260
   4.000   0.4073   0.00719   0.00207   0.0072  0.0815  0.9087  -1.6191   0.0000   0.2269
   4.500   0.4600   0.00753   0.00234   0.0077  0.0596  0.9208  -1.8458   0.0000   0.2276
   5.000   0.5116   0.00797   0.00268   0.0084  0.0397  0.9319  -2.0798   0.0000   0.2275
   5.500   0.5639   0.00831   0.00301   0.0090  0.0358  0.9420  -2.3260   0.0000   0.2276
   6.000   0.6157   0.00866   0.00339   0.0098  0.0335  0.9517  -2.5762   0.0000   0.2273
   6.500   0.6670   0.00901   0.00376   0.0106  0.0321  0.9608  -2.8362   0.0000   0.2270
   7.000   0.7167   0.00943   0.00420   0.0117  0.0306  0.9698  -3.1063   0.0000   0.2260
   7.500   0.7646   0.01001   0.00482   0.0132  0.0290  0.9785  -3.4026   0.0000   0.2247
   8.000   0.8202   0.01041   0.00523   0.0129  0.0282  0.9836  -3.7811   0.0000   0.2258
   8.500   0.8765   0.01089   0.00573   0.0123  0.0271  0.9883  -4.1985   0.0000   0.2269
   9.000   0.9379   0.01150   0.00634   0.0104  0.0258  0.9902  -4.6725   0.0000   0.2293
   9.500   0.9969   0.01227   0.00715   0.0089  0.0245  0.9923  -5.1512   0.0000   0.2309
  10.000   1.0554   0.01275   0.00765   0.0077  0.0237  0.9950  -5.6752   0.0000   0.2319
  10.500   1.1157   0.01331   0.00823   0.0060  0.0227  0.9961  -6.2736   0.0000   0.2332
  11.000   1.1743   0.01401   0.00893   0.0044  0.0215  0.9976  -6.8959   0.0000   0.2341
  11.500   1.2318   0.01471   0.00968   0.0031  0.0205  0.9992  -7.5360   0.0000   0.2346
  12.000   1.2786   0.01517   0.01017   0.0042  0.0195  1.0000  -8.1426   0.0000   0.2331
  12.500   1.3052   0.01563   0.01063   0.0095  0.0185  1.0000  -8.6458   0.0000   0.2284
  13.000   1.3325   0.01632   0.01138   0.0144  0.0175  1.0000  -9.1579   0.0000   0.2240
  13.500   1.3630   0.01692   0.01203   0.0186  0.0166  1.0000  -9.7069   0.0000   0.2204
  14.000   1.3952   0.01772   0.01286   0.0220  0.0154  1.0000  -10.2781   0.0000   0.2174
  14.500   1.4267   0.01874   0.01394   0.0253  0.0143  1.0000  -10.8514   0.0000   0.2146
  15.000   1.4576   0.01985   0.01511   0.0283  0.0133  1.0000  -11.4345   0.0000   0.2120
  15.500   1.4840   0.02130   0.01663   0.0315  0.0121  1.0000  -11.9899   0.0000   0.2092
  16.000   1.5097   0.02284   0.01827   0.0345  0.0114  1.0000  -12.5508   0.0000   0.2066
  16.500   1.5297   0.02483   0.02036   0.0377  0.0106  1.0000  -13.0950   0.0000   0.2038
  17.000   1.5456   0.02724   0.02290   0.0407  0.0099  1.0000  -13.6060   0.0000   0.2011
  17.500   1.5611   0.02983   0.02562   0.0431  0.0095  1.0000  -14.1228   0.0000   0.1987
  18.000   1.5701   0.03314   0.02908   0.0452  0.0090  1.0000  -14.5829   0.0000   0.1964
  18.500   1.5714   0.03745   0.03354   0.0466  0.0086  1.0000  -14.9678   0.0000   0.1943
  19.000   1.5608   0.04345   0.03974   0.0470  0.0082  1.0000  -15.2201   0.0000   0.1925
  19.500   1.5521   0.04999   0.04648   0.0458  0.0080  1.0000  -15.4958   0.0000   0.1918
  20.000   1.5327   0.05870   0.05542   0.0427  0.0079  1.0000  -15.6346   0.0000   0.1919
  20.500   1.4928   0.07149   0.06849   0.0366  0.0078  1.0000  -15.4956   0.0000   0.1938
  21.000   1.3912   0.09614   0.09357   0.0230  0.0079  1.0000  -14.4886   0.0000   0.2001
  21.500   1.1272   0.15429   0.15248  -0.0105  0.0090  1.0000  -10.8191   0.0000   0.2250
  22.000   1.0290   0.18581   0.18426  -0.0307  0.0089  1.0000  -9.0477   0.0000   0.2451
  22.500   0.9994   0.20297   0.20151  -0.0422  0.0084  1.0000  -8.3302   0.0000   0.2568
  23.000   0.9785   0.21904   0.21769  -0.0529  0.0078  1.0000  -7.6372   0.0000   0.2681
  23.500   0.9632   0.23451   0.23323  -0.0631  0.0070  1.0000  -6.9423   0.0000   0.2792


