xflr5 v6.33

 Calculated polar for: NACA 0012-64

 1 1 Reynolds number fixed          Mach number fixed         

 xtrf =   1.000 (top)        1.000 (bottom)
 Mach =   0.000     Re =     1.000 e 6     Ncrit =   9.000

  alpha     CL        CD       CDp       Cm    Top Xtr Bot Xtr   Cpmin    Chinge    XCp    
 ------- -------- --------- --------- -------- ------- ------- -------- --------- ---------
 -20.000  -1.0924   0.13561   0.13336  -0.0013  1.0000  0.0136  -9.8695   0.0000   0.2181
 -19.500  -1.2093   0.10517   0.10254  -0.0183  1.0000  0.0132  -11.3166   0.0000   0.2052
 -19.000  -1.3067   0.07957   0.07651  -0.0323  1.0000  0.0129  -12.3130   0.0000   0.1969
 -18.500  -1.3555   0.06397   0.06058  -0.0408  1.0000  0.0130  -12.6119   0.0000   0.1930
 -18.000  -1.3782   0.05395   0.05031  -0.0453  1.0000  0.0133  -12.5664   0.0000   0.1916
 -17.500  -1.3870   0.04687   0.04300  -0.0473  1.0000  0.0138  -12.3513   0.0000   0.1917
 -17.000  -1.3876   0.04145   0.03734  -0.0477  1.0000  0.0144  -12.0459   0.0000   0.1926
 -16.500  -1.3865   0.03672   0.03238  -0.0469  1.0000  0.0149  -11.7198   0.0000   0.1943
 -16.000  -1.3775   0.03314   0.02868  -0.0454  1.0000  0.0157  -11.3200   0.0000   0.1963
 -15.500  -1.3570   0.03076   0.02618  -0.0437  1.0000  0.0166  -10.8340   0.0000   0.1981
 -15.000  -1.3332   0.02876   0.02400  -0.0417  1.0000  0.0175  -10.3350   0.0000   0.2000
 -14.500  -1.3152   0.02648   0.02161  -0.0388  1.0000  0.0184  -9.8849   0.0000   0.2027
 -14.000  -1.2833   0.02533   0.02040  -0.0368  1.0000  0.0195  -9.3276   0.0000   0.2045
 -13.500  -1.2510   0.02425   0.01917  -0.0345  1.0000  0.0206  -8.7881   0.0000   0.2065
 -13.000  -1.2277   0.02258   0.01737  -0.0308  1.0000  0.0216  -8.3308   0.0000   0.2098
 -12.500  -1.1971   0.02163   0.01636  -0.0276  1.0000  0.0226  -7.8194   0.0000   0.2126
 -12.000  -1.1674   0.02086   0.01550  -0.0238  1.0000  0.0237  -7.3286   0.0000   0.2161
 -11.500  -1.1433   0.02025   0.01476  -0.0184  1.0000  0.0246  -6.8842   0.0000   0.2211
 -11.000  -1.1272   0.01886   0.01327  -0.0117  1.0000  0.0256  -6.5104   0.0000   0.2275
 -10.500  -1.1053   0.01813   0.01250  -0.0057  1.0000  0.0266  -6.0972   0.0000   0.2334
 -10.000  -1.0802   0.01756   0.01187  -0.0002  1.0000  0.0277  -5.6810   0.0000   0.2390
  -9.500  -1.0350   0.01692   0.01114   0.0011  0.9989  0.0288  -5.2206   0.0000   0.2409
  -9.000  -0.9792   0.01543   0.00956  -0.0002  0.9963  0.0304  -4.7625   0.0000   0.2402
  -8.500  -0.9187   0.01463   0.00874  -0.0021  0.9938  0.0322  -4.2920   0.0000   0.2387
  -8.000  -0.8581   0.01386   0.00790  -0.0039  0.9905  0.0335  -3.8472   0.0000   0.2370
  -7.500  -0.7964   0.01284   0.00682  -0.0060  0.9881  0.0354  -3.4643   0.0000   0.2345
  -7.000  -0.7358   0.01208   0.00604  -0.0077  0.9845  0.0373  -3.1139   0.0000   0.2320
  -6.500  -0.6720   0.01145   0.00537  -0.0099  0.9814  0.0392  -2.7909   0.0000   0.2280
  -6.000  -0.6064   0.01072   0.00464  -0.0126  0.9792  0.0426  -2.5178   0.0000   0.2224
  -5.500  -0.5484   0.01017   0.00410  -0.0134  0.9730  0.0476  -2.2637   0.0000   0.2191
  -5.000  -0.4915   0.00953   0.00358  -0.0139  0.9672  0.0661  -2.0209   0.0000   0.2155
  -4.500  -0.4396   0.00896   0.00315  -0.0133  0.9588  0.0964  -1.7903   0.0000   0.2139
  -4.000  -0.3910   0.00839   0.00278  -0.0119  0.9484  0.1418  -1.5810   0.0000   0.2139
  -3.500  -0.3427   0.00778   0.00244  -0.0105  0.9374  0.2089  -1.3836   0.0000   0.2139
  -3.000  -0.2968   0.00698   0.00208  -0.0087  0.9252  0.3222  -1.1972   0.0000   0.2155
  -2.500  -0.2545   0.00595   0.00172  -0.0062  0.9123  0.5047  -1.0334   0.0000   0.2205
  -2.000  -0.2092   0.00527   0.00152  -0.0040  0.8991  0.6399  -0.8716   0.0000   0.2260
  -1.500  -0.1582   0.00499   0.00141  -0.0029  0.8859  0.7062  -0.7068   0.0000   0.2274
  -0.500  -0.0530   0.00472   0.00132  -0.0010  0.8498  0.7925  -0.4254   0.0000   0.2276
   0.000   0.0000   0.00469   0.00129  -0.0000  0.8227  0.8227  -0.3375   0.0000   0.4611
   0.500   0.0530   0.00472   0.00132   0.0010  0.7925  0.8498  -0.4254   0.0000   0.2276
   1.000   0.1056   0.00482   0.00136   0.0019  0.7554  0.8718  -0.5470   0.0000   0.2272
   1.500   0.1582   0.00499   0.00141   0.0029  0.7062  0.8859  -0.7068   0.0000   0.2274
   2.000   0.2092   0.00527   0.00152   0.0040  0.6400  0.8991  -0.8716   0.0000   0.2260
   2.500   0.2545   0.00595   0.00172   0.0062  0.5047  0.9123  -1.0334   0.0000   0.2206
   3.000   0.2968   0.00698   0.00207   0.0087  0.3221  0.9252  -1.1973   0.0000   0.2155
   3.500   0.3427   0.00778   0.00244   0.0105  0.2089  0.9374  -1.3836   0.0000   0.2140
   4.000   0.3910   0.00839   0.00278   0.0119  0.1417  0.9484  -1.5811   0.0000   0.2139
   4.500   0.4396   0.00896   0.00315   0.0133  0.0964  0.9588  -1.7904   0.0000   0.2139
   5.000   0.4916   0.00952   0.00358   0.0139  0.0661  0.9672  -2.0209   0.0000   0.2155
   5.500   0.5485   0.01017   0.00410   0.0133  0.0476  0.9730  -2.2638   0.0000   0.2191
   6.000   0.6065   0.01071   0.00464   0.0125  0.0426  0.9792  -2.5179   0.0000   0.2225
   6.500   0.6720   0.01145   0.00537   0.0099  0.0392  0.9814  -2.7910   0.0000   0.2281
   7.000   0.7359   0.01208   0.00604   0.0076  0.0373  0.9845  -3.1140   0.0000   0.2320
   7.500   0.7965   0.01284   0.00682   0.0060  0.0353  0.9881  -3.4646   0.0000   0.2345
   8.000   0.8582   0.01386   0.00790   0.0038  0.0335  0.9905  -3.8476   0.0000   0.2370
   8.500   0.9188   0.01463   0.00874   0.0021  0.0322  0.9938  -4.2924   0.0000   0.2387
   9.000   0.9793   0.01543   0.00956   0.0002  0.0304  0.9963  -4.7631   0.0000   0.2402
   9.500   1.0352   0.01692   0.01114  -0.0011  0.0288  0.9989  -5.2214   0.0000   0.2409
  10.000   1.0801   0.01756   0.01187   0.0002  0.0277  1.0000  -5.6804   0.0000   0.2390
  10.500   1.1052   0.01812   0.01250   0.0057  0.0266  1.0000  -6.0967   0.0000   0.2334
  11.000   1.1271   0.01885   0.01326   0.0117  0.0256  1.0000  -6.5103   0.0000   0.2275
  11.500   1.1434   0.02025   0.01476   0.0183  0.0245  1.0000  -6.8851   0.0000   0.2211
  12.000   1.1678   0.02086   0.01550   0.0237  0.0237  1.0000  -7.3310   0.0000   0.2162
  12.500   1.1977   0.02162   0.01636   0.0275  0.0226  1.0000  -7.8228   0.0000   0.2127
  13.000   1.2283   0.02258   0.01737   0.0307  0.0216  1.0000  -8.3346   0.0000   0.2099
  13.500   1.2519   0.02424   0.01917   0.0344  0.0206  1.0000  -8.7933   0.0000   0.2066
  14.000   1.2843   0.02532   0.02039   0.0366  0.0195  1.0000  -9.3338   0.0000   0.2046
  14.500   1.3162   0.02647   0.02160   0.0386  0.0184  1.0000  -9.8920   0.0000   0.2029
  15.000   1.3345   0.02874   0.02398   0.0415  0.0174  1.0000  -10.3435   0.0000   0.2002
  15.500   1.3583   0.03074   0.02616   0.0435  0.0166  1.0000  -10.8435   0.0000   0.1983
  16.000   1.3791   0.03311   0.02865   0.0452  0.0157  1.0000  -11.3312   0.0000   0.1965
  16.500   1.3878   0.03671   0.03237   0.0467  0.0149  1.0000  -11.7291   0.0000   0.1945
  17.000   1.3896   0.04139   0.03728   0.0475  0.0144  1.0000  -12.0608   0.0000   0.1929
  17.500   1.3892   0.04680   0.04292   0.0470  0.0138  1.0000  -12.3685   0.0000   0.1919
  18.000   1.3807   0.05384   0.05019   0.0450  0.0133  1.0000  -12.5869   0.0000   0.1919
  18.500   1.3581   0.06385   0.06045   0.0406  0.0130  1.0000  -12.6345   0.0000   0.1932
  19.000   1.3096   0.07943   0.07636   0.0321  0.0129  1.0000  -12.3380   0.0000   0.1972
  19.500   1.2122   0.10505   0.10242   0.0180  0.0132  1.0000  -11.3422   0.0000   0.2055
  20.000   1.0942   0.13573   0.13349   0.0009  0.0136  1.0000  -9.8791   0.0000   0.2185
  31.500   1.1197   0.36629   0.36462  -0.1601  0.0033  1.0000  -2.1894   0.0000   0.3412
  32.000   1.1319   0.37079   0.36914  -0.1655  0.0031  1.0000  -2.2355   0.0000   0.3427
  32.500   1.1434   0.37483   0.37320  -0.1709  0.0030  1.0000  -2.3134   0.0000   0.3442
  33.000   1.1539   0.37841   0.37678  -0.1761  0.0030  1.0000  -2.4306   0.0000   0.3454
  33.500   1.1657   0.38371   0.38210  -0.1818  0.0029  1.0000  -2.3767   0.0000   0.3471
  34.000   1.1787   0.38986   0.38825  -0.1875  0.0027  1.0000  -2.2283   0.0000   0.3488
  34.500   1.1895   0.39424   0.39265  -0.1931  0.0024  1.0000  -2.2397   0.0000   0.3501
  35.000   1.1996   0.39827   0.39669  -0.1987  0.0023  1.0000  -2.2785   0.0000   0.3515
  35.500   1.2090   0.40195   0.40039  -0.2043  0.0022  1.0000  -2.3432   0.0000   0.3527
  36.000   1.2175   0.40517   0.40363  -0.2099  0.0021  1.0000  -2.4412   0.0000   0.3539
  36.500   1.2263   0.40900   0.40747  -0.2155  0.0021  1.0000  -2.4405   0.0000   0.3552
  37.000   1.2374   0.41486   0.41334  -0.2214  0.0020  1.0000  -2.2772   0.0000   0.3566
  37.500   1.2464   0.41919   0.41769  -0.2271  0.0018  1.0000  -2.2529   0.0000   0.3578
  38.000   1.2544   0.42287   0.42139  -0.2329  0.0016  1.0000  -2.2744   0.0000   0.3589
  38.500   1.2617   0.42630   0.42483  -0.2387  0.0015  1.0000  -2.3146   0.0000   0.3601


