xflr5 v6.33

 Calculated polar for: NACA 0012-64

 1 1 Reynolds number fixed          Mach number fixed         

 xtrf =   1.000 (top)        1.000 (bottom)
 Mach =   0.000     Re =     2.900 e 6     Ncrit =   9.000

  alpha     CL        CD       CDp       Cm    Top Xtr Bot Xtr   Cpmin    Chinge    XCp    
 ------- -------- --------- --------- -------- ------- ------- -------- --------- ---------
 -24.500  -0.9826   0.24749   0.24636   0.0736  1.0000  0.0057  -7.0872   0.0000   0.2863
 -24.000  -0.9827   0.23692   0.23574   0.0661  1.0000  0.0062  -7.3998   0.0000   0.2793
 -23.500  -0.9882   0.22497   0.22372   0.0577  1.0000  0.0066  -7.8008   0.0000   0.2712
 -23.000  -0.9919   0.21402   0.21275   0.0498  1.0000  0.0072  -8.0643   0.0000   0.2639
 -22.500  -1.0175   0.19723   0.19587   0.0385  1.0000  0.0078  -8.8003   0.0000   0.2520
 -22.000  -1.0830   0.17208   0.17051   0.0218  1.0000  0.0080  -10.1507   0.0000   0.2348
 -21.500  -1.4279   0.09671   0.09418  -0.0233  1.0000  0.0067  -15.3095   0.0000   0.1991
 -21.000  -1.5166   0.07449   0.07158  -0.0354  1.0000  0.0066  -16.1571   0.0000   0.1937
 -20.500  -1.5665   0.06019   0.05700  -0.0424  1.0000  0.0067  -16.4212   0.0000   0.1915
 -20.000  -1.5956   0.05022   0.04678  -0.0460  1.0000  0.0069  -16.3910   0.0000   0.1913
 -19.500  -1.6109   0.04299   0.03936  -0.0472  1.0000  0.0071  -16.1759   0.0000   0.1922
 -19.000  -1.6161   0.03759   0.03380  -0.0468  1.0000  0.0074  -15.8351   0.0000   0.1938
 -18.500  -1.6132   0.03342   0.02948  -0.0455  1.0000  0.0077  -15.4090   0.0000   0.1958
 -18.000  -1.6033   0.03016   0.02609  -0.0436  1.0000  0.0080  -14.9264   0.0000   0.1980
 -17.500  -1.5897   0.02742   0.02321  -0.0412  1.0000  0.0083  -14.4134   0.0000   0.2004
 -17.000  -1.5767   0.02481   0.02048  -0.0381  1.0000  0.0089  -13.9121   0.0000   0.2033
 -16.500  -1.5569   0.02281   0.01839  -0.0350  1.0000  0.0095  -13.3537   0.0000   0.2060
 -16.000  -1.5320   0.02125   0.01672  -0.0320  1.0000  0.0100  -12.7598   0.0000   0.2086
 -15.500  -1.5077   0.01968   0.01507  -0.0286  1.0000  0.0109  -12.2064   0.0000   0.2115
 -15.000  -1.4793   0.01842   0.01375  -0.0253  1.0000  0.0118  -11.6259   0.0000   0.2142
 -14.500  -1.4490   0.01732   0.01259  -0.0220  1.0000  0.0130  -11.0438   0.0000   0.2171
 -14.000  -1.4174   0.01642   0.01166  -0.0185  1.0000  0.0142  -10.4604   0.0000   0.2201
 -13.500  -1.3880   0.01569   0.01088  -0.0143  1.0000  0.0152  -9.9031   0.0000   0.2237
 -13.000  -1.3588   0.01503   0.01020  -0.0097  1.0000  0.0165  -9.3582   0.0000   0.2276
 -12.500  -1.3329   0.01455   0.00969  -0.0043  1.0000  0.0173  -8.8446   0.0000   0.2324
 -11.500  -1.2250   0.01325   0.00837  -0.0054  0.9975  0.0197  -7.5311   0.0000   0.2327
 -11.000  -1.1657   0.01277   0.00788  -0.0070  0.9963  0.0206  -6.8750   0.0000   0.2319
 -10.500  -1.1067   0.01215   0.00724  -0.0085  0.9953  0.0216  -6.2510   0.0000   0.2309
 -10.000  -1.0498   0.01154   0.00662  -0.0094  0.9929  0.0228  -5.6728   0.0000   0.2302
  -9.500  -0.9902   0.01105   0.00613  -0.0109  0.9908  0.0237  -5.1466   0.0000   0.2288
  -9.000  -0.9307   0.01063   0.00570  -0.0123  0.9881  0.0245  -4.6562   0.0000   0.2272
  -8.500  -0.8782   0.01012   0.00517  -0.0120  0.9820  0.0253  -4.2178   0.0000   0.2273
  -8.000  -0.8284   0.00961   0.00464  -0.0111  0.9749  0.0268  -3.8243   0.0000   0.2281
  -7.500  -0.7783   0.00923   0.00425  -0.0101  0.9669  0.0279  -3.4613   0.0000   0.2290
  -7.000  -0.7276   0.00888   0.00387  -0.0092  0.9580  0.0287  -3.1448   0.0000   0.2298
  -6.500  -0.6759   0.00853   0.00349  -0.0085  0.9489  0.0295  -2.8682   0.0000   0.2303
  -6.000  -0.6241   0.00814   0.00309  -0.0078  0.9393  0.0316  -2.6093   0.0000   0.2307
  -5.500  -0.5711   0.00783   0.00277  -0.0074  0.9292  0.0333  -2.3497   0.0000   0.2307
  -5.000  -0.5176   0.00755   0.00247  -0.0070  0.9186  0.0365  -2.0996   0.0000   0.2304
  -4.500  -0.4645   0.00722   0.00218  -0.0066  0.9064  0.0460  -1.8587   0.0000   0.2301
  -4.000  -0.4116   0.00685   0.00191  -0.0061  0.8938  0.0711  -1.6295   0.0000   0.2297
  -3.500  -0.3578   0.00656   0.00169  -0.0058  0.8807  0.0926  -1.4175   0.0000   0.2285
  -3.000  -0.3048   0.00620   0.00148  -0.0054  0.8666  0.1345  -1.2152   0.0000   0.2273
  -2.500  -0.2517   0.00585   0.00129  -0.0050  0.8516  0.1877  -1.0309   0.0000   0.2254
  -2.000  -0.1995   0.00547   0.00111  -0.0044  0.8335  0.2594  -0.8583   0.0000   0.2233
  -1.500  -0.1526   0.00473   0.00088  -0.0028  0.8070  0.4265  -0.7012   0.0000   0.2268
  -1.000  -0.1029   0.00431   0.00074  -0.0017  0.7741  0.5397  -0.5458   0.0000   0.2287
  -0.500  -0.0515   0.00408   0.00067  -0.0009  0.7377  0.6216  -0.4249   0.0000   0.2285
   0.000   0.0000   0.00395   0.00064  -0.0000  0.6957  0.6957  -0.3385   0.0000   0.4464
   0.500   0.0515   0.00408   0.00067   0.0009  0.6216  0.7377  -0.4249   0.0000   0.2285
   1.000   0.1029   0.00431   0.00074   0.0017  0.5397  0.7741  -0.5458   0.0000   0.2287
   1.500   0.1526   0.00473   0.00088   0.0028  0.4265  0.8070  -0.7012   0.0000   0.2268
   2.000   0.1995   0.00547   0.00111   0.0044  0.2594  0.8335  -0.8583   0.0000   0.2233
   2.500   0.2517   0.00585   0.00129   0.0050  0.1877  0.8516  -1.0309   0.0000   0.2254
   3.000   0.3048   0.00620   0.00148   0.0054  0.1345  0.8666  -1.2152   0.0000   0.2273
   3.500   0.3578   0.00656   0.00169   0.0058  0.0925  0.8807  -1.4176   0.0000   0.2286
   4.000   0.4117   0.00685   0.00191   0.0061  0.0711  0.8938  -1.6296   0.0000   0.2297
   4.500   0.4645   0.00722   0.00218   0.0066  0.0460  0.9064  -1.8588   0.0000   0.2302
   5.000   0.5177   0.00755   0.00247   0.0070  0.0365  0.9186  -2.0997   0.0000   0.2305
   5.500   0.5711   0.00783   0.00277   0.0074  0.0333  0.9292  -2.3499   0.0000   0.2307
   6.000   0.6242   0.00814   0.00309   0.0078  0.0316  0.9393  -2.6095   0.0000   0.2308
   6.500   0.6760   0.00853   0.00349   0.0085  0.0295  0.9489  -2.8684   0.0000   0.2303
   7.000   0.7277   0.00888   0.00387   0.0092  0.0287  0.9580  -3.1451   0.0000   0.2299
   7.500   0.7784   0.00923   0.00425   0.0101  0.0279  0.9669  -3.4617   0.0000   0.2290
   8.000   0.8285   0.00961   0.00464   0.0111  0.0268  0.9748  -3.8248   0.0000   0.2281
   8.500   0.8783   0.01012   0.00517   0.0120  0.0253  0.9820  -4.2183   0.0000   0.2273
   9.000   0.9308   0.01063   0.00570   0.0122  0.0245  0.9881  -4.6568   0.0000   0.2272
   9.500   0.9904   0.01105   0.00613   0.0109  0.0237  0.9908  -5.1472   0.0000   0.2288
  10.000   1.0500   0.01154   0.00662   0.0094  0.0228  0.9929  -5.6735   0.0000   0.2302
  10.500   1.1069   0.01215   0.00724   0.0084  0.0216  0.9953  -6.2520   0.0000   0.2309
  11.000   1.1659   0.01277   0.00788   0.0069  0.0206  0.9963  -6.8762   0.0000   0.2319
  11.500   1.2252   0.01325   0.00837   0.0054  0.0197  0.9975  -7.5324   0.0000   0.2328
  12.000   1.2825   0.01386   0.00896   0.0041  0.0183  0.9990  -8.1998   0.0000   0.2332
  12.500   1.3328   0.01455   0.00968   0.0043  0.0173  1.0000  -8.8437   0.0000   0.2323
  13.000   1.3588   0.01503   0.01020   0.0097  0.0165  1.0000  -9.3583   0.0000   0.2276
  13.500   1.3882   0.01569   0.01088   0.0142  0.0152  1.0000  -9.9048   0.0000   0.2237
  14.000   1.4180   0.01642   0.01166   0.0184  0.0142  1.0000  -10.4643   0.0000   0.2202
  14.500   1.4497   0.01732   0.01259   0.0219  0.0130  1.0000  -11.0484   0.0000   0.2172
  15.000   1.4801   0.01842   0.01375   0.0252  0.0118  1.0000  -11.6315   0.0000   0.2144
  15.500   1.5086   0.01967   0.01507   0.0284  0.0109  1.0000  -12.2128   0.0000   0.2116
  16.000   1.5331   0.02124   0.01672   0.0318  0.0099  1.0000  -12.7676   0.0000   0.2087
  16.500   1.5581   0.02281   0.01838   0.0348  0.0095  1.0000  -13.3627   0.0000   0.2061
  17.000   1.5779   0.02480   0.02047   0.0379  0.0089  1.0000  -13.9223   0.0000   0.2034
  17.500   1.5911   0.02741   0.02320   0.0410  0.0083  1.0000  -14.4243   0.0000   0.2006
  18.000   1.6050   0.03013   0.02605   0.0434  0.0080  1.0000  -14.9409   0.0000   0.1982
  18.500   1.6151   0.03339   0.02945   0.0452  0.0077  1.0000  -15.4252   0.0000   0.1960
  19.000   1.6181   0.03754   0.03375   0.0465  0.0074  1.0000  -15.8532   0.0000   0.1941
  19.500   1.6131   0.04293   0.03930   0.0469  0.0071  1.0000  -16.1957   0.0000   0.1924
  20.000   1.5979   0.05016   0.04672   0.0456  0.0069  1.0000  -16.4120   0.0000   0.1915
  20.500   1.5688   0.06014   0.05694   0.0420  0.0066  1.0000  -16.4427   0.0000   0.1918
  21.000   1.5190   0.07446   0.07155   0.0350  0.0066  1.0000  -16.1782   0.0000   0.1939
  21.500   1.4302   0.09672   0.09419   0.0228  0.0067  1.0000  -15.3289   0.0000   0.1994
  22.000   1.0845   0.17239   0.17082  -0.0222  0.0080  1.0000  -10.1558   0.0000   0.2352
  22.500   1.0190   0.19771   0.19635  -0.0389  0.0077  1.0000  -8.8031   0.0000   0.2524
  23.000   0.9934   0.21460   0.21333  -0.0503  0.0072  1.0000  -8.0672   0.0000   0.2643
  23.500   0.9900   0.22551   0.22426  -0.0581  0.0066  1.0000  -7.8128   0.0000   0.2715
  24.000   0.9844   0.23767   0.23650  -0.0665  0.0062  1.0000  -7.4036   0.0000   0.2797
  24.500   0.9844   0.24840   0.24727  -0.0741  0.0057  1.0000  -7.0946   0.0000   0.2866
  25.000   0.9955   0.25495   0.25382  -0.0796  0.0053  1.0000  -7.1656   0.0000   0.2900


