xflr5 v6.33

 Calculated polar for: NACA 0012 v1

 1 1 Reynolds number fixed          Mach number fixed         

 xtrf =   1.000 (top)        1.000 (bottom)
 Mach =   0.000     Re =     3.800 e 6     Ncrit =   9.000

  alpha     CL        CD       CDp       Cm    Top Xtr Bot Xtr   Cpmin    Chinge    XCp    
 ------- -------- --------- --------- -------- ------- ------- -------- --------- ---------
 -27.000  -1.1458   0.26643   0.26541   0.1236  1.0000  0.0056  -8.0235   0.0000   0.3124
 -26.500  -1.1430   0.25801   0.25696   0.1160  1.0000  0.0060  -8.2435   0.0000   0.3070
 -26.000  -1.1432   0.24866   0.24756   0.1079  1.0000  0.0063  -8.5366   0.0000   0.3007
 -25.500  -1.1456   0.23878   0.23761   0.0994  1.0000  0.0066  -8.8416   0.0000   0.2940
 -25.000  -1.1471   0.22949   0.22824   0.0913  1.0000  0.0068  -9.0615   0.0000   0.2879
 -24.500  -1.1500   0.21989   0.21857   0.0831  1.0000  0.0069  -9.2690   0.0000   0.2816
 -24.000  -1.1600   0.20869   0.20730   0.0738  1.0000  0.0073  -9.5930   0.0000   0.2738
 -23.500  -1.1835   0.19437   0.19287   0.0622  1.0000  0.0075  -10.1225   0.0000   0.2636
 -23.000  -1.2248   0.17674   0.17508   0.0484  1.0000  0.0077  -10.8606   0.0000   0.2513
 -22.500  -1.3011   0.15284   0.15091   0.0306  1.0000  0.0077  -11.9967   0.0000   0.2361
 -22.000  -1.4042   0.12577   0.12348   0.0122  1.0000  0.0076  -13.2698   0.0000   0.2224
 -21.500  -1.5050   0.10109   0.09846  -0.0023  1.0000  0.0075  -14.2922   0.0000   0.2135
 -21.000  -1.5871   0.08088   0.07793  -0.0129  1.0000  0.0074  -14.9660   0.0000   0.2083
 -20.500  -1.6454   0.06530   0.06208  -0.0206  1.0000  0.0074  -15.3087   0.0000   0.2053
 -20.000  -1.6820   0.05360   0.05015  -0.0259  1.0000  0.0075  -15.3850   0.0000   0.2039
 -19.500  -1.7020   0.04484   0.04121  -0.0293  1.0000  0.0076  -15.2665   0.0000   0.2035
 -19.000  -1.7090   0.03826   0.03447  -0.0311  1.0000  0.0078  -15.0065   0.0000   0.2038
 -18.500  -1.7067   0.03327   0.02934  -0.0315  1.0000  0.0080  -14.6507   0.0000   0.2048
 -18.000  -1.6979   0.02945   0.02540  -0.0308  1.0000  0.0081  -14.2306   0.0000   0.2064
 -17.500  -1.6839   0.02649   0.02232  -0.0292  1.0000  0.0083  -13.7658   0.0000   0.2083
 -17.000  -1.6656   0.02420   0.01993  -0.0269  1.0000  0.0084  -13.2691   0.0000   0.2106
 -16.500  -1.6465   0.02221   0.01783  -0.0238  1.0000  0.0086  -12.7905   0.0000   0.2133
 -16.000  -1.6270   0.02044   0.01597  -0.0200  1.0000  0.0091  -12.3153   0.0000   0.2165
 -15.500  -1.6020   0.01915   0.01461  -0.0161  1.0000  0.0094  -11.7995   0.0000   0.2197
 -15.000  -1.5687   0.01809   0.01349  -0.0133  1.0000  0.0098  -11.2358   0.0000   0.2222
 -14.500  -1.5294   0.01715   0.01250  -0.0113  1.0000  0.0101  -10.6446   0.0000   0.2242
 -14.000  -1.4884   0.01621   0.01150  -0.0095  1.0000  0.0105  -10.0598   0.0000   0.2261
 -13.500  -1.4463   0.01526   0.01052  -0.0079  1.0000  0.0112  -9.4813   0.0000   0.2279
 -13.000  -1.4011   0.01450   0.00973  -0.0065  1.0000  0.0118  -8.8965   0.0000   0.2295
 -12.500  -1.3545   0.01381   0.00901  -0.0054  1.0000  0.0122  -8.3190   0.0000   0.2310
 -12.000  -1.3085   0.01303   0.00821  -0.0041  1.0000  0.0133  -7.7837   0.0000   0.2327
 -11.500  -1.2608   0.01242   0.00758  -0.0029  1.0000  0.0140  -7.2547   0.0000   0.2343
 -11.000  -1.2140   0.01180   0.00695  -0.0015  1.0000  0.0151  -6.7478   0.0000   0.2361
 -10.500  -1.1683   0.01127   0.00641   0.0003  1.0000  0.0162  -6.2587   0.0000   0.2382
 -10.000  -1.1244   0.01074   0.00588   0.0025  1.0000  0.0175  -5.7943   0.0000   0.2409
  -9.500  -1.0751   0.01028   0.00541   0.0035  0.9996  0.0188  -5.3305   0.0000   0.2426
  -9.000  -1.0130   0.00974   0.00490   0.0018  0.9981  0.0211  -4.8414   0.0000   0.2417
  -8.500  -0.9498   0.00925   0.00443  -0.0001  0.9966  0.0238  -4.3668   0.0000   0.2404
  -8.000  -0.8863   0.00879   0.00400  -0.0020  0.9947  0.0269  -3.9203   0.0000   0.2388
  -7.500  -0.8248   0.00834   0.00359  -0.0034  0.9907  0.0315  -3.5106   0.0000   0.2374
  -7.000  -0.7672   0.00795   0.00324  -0.0039  0.9827  0.0366  -3.1338   0.0000   0.2370
  -6.500  -0.7139   0.00759   0.00292  -0.0033  0.9697  0.0434  -2.8000   0.0000   0.2379
  -6.000  -0.6615   0.00725   0.00260  -0.0025  0.9523  0.0526  -2.4873   0.0000   0.2392
  -5.500  -0.6082   0.00695   0.00231  -0.0018  0.9310  0.0644  -2.1959   0.0000   0.2403
  -5.000  -0.5542   0.00665   0.00204  -0.0014  0.9048  0.0807  -1.9261   0.0000   0.2413
  -4.500  -0.4999   0.00638   0.00178  -0.0010  0.8736  0.1024  -1.6773   0.0000   0.2421
  -4.000  -0.4452   0.00613   0.00155  -0.0006  0.8373  0.1306  -1.4507   0.0000   0.2429
  -3.500  -0.3904   0.00590   0.00134  -0.0004  0.7972  0.1646  -1.2463   0.0000   0.2436
  -3.000  -0.3352   0.00569   0.00117  -0.0002  0.7539  0.2042  -1.0658   0.0000   0.2442
  -2.500  -0.2798   0.00551   0.00102  -0.0001  0.7090  0.2473  -0.9068   0.0000   0.2447
  -2.000  -0.2242   0.00536   0.00090  -0.0000  0.6632  0.2924  -0.7702   0.0000   0.2451
  -1.500  -0.1683   0.00525   0.00082   0.0000  0.6170  0.3390  -0.6547   0.0000   0.2454
  -1.000  -0.1123   0.00517   0.00076   0.0000  0.5710  0.3856  -0.5587   0.0000   0.2456
  -0.500  -0.0562   0.00512   0.00072   0.0000  0.5250  0.4322  -0.4794   0.0000   0.2458
   0.000  -0.0000   0.00511   0.00071  -0.0000  0.4787  0.4787  -0.4129   0.0000   0.3206
   0.500   0.0562   0.00512   0.00072  -0.0000  0.4322  0.5250  -0.4794   0.0000   0.2458
   1.000   0.1123   0.00517   0.00076  -0.0000  0.3856  0.5710  -0.5587   0.0000   0.2456
   1.500   0.1683   0.00525   0.00082  -0.0000  0.3390  0.6170  -0.6547   0.0000   0.2454
   2.000   0.2242   0.00536   0.00090   0.0000  0.2924  0.6632  -0.7702   0.0000   0.2451
   2.500   0.2798   0.00551   0.00102   0.0001  0.2473  0.7090  -0.9068   0.0000   0.2447
   3.000   0.3352   0.00569   0.00117   0.0003  0.2042  0.7539  -1.0658   0.0000   0.2442
   3.500   0.3904   0.00590   0.00134   0.0005  0.1646  0.7972  -1.2464   0.0000   0.2436
   4.000   0.4453   0.00613   0.00155   0.0007  0.1306  0.8373  -1.4508   0.0000   0.2429
   4.500   0.4999   0.00638   0.00178   0.0011  0.1024  0.8735  -1.6773   0.0000   0.2421
   5.000   0.5543   0.00665   0.00204   0.0015  0.0807  0.9047  -1.9262   0.0000   0.2413
   5.500   0.6083   0.00695   0.00231   0.0020  0.0644  0.9310  -2.1960   0.0000   0.2403
   6.000   0.6615   0.00725   0.00260   0.0026  0.0526  0.9523  -2.4874   0.0000   0.2392
   6.500   0.7139   0.00759   0.00292   0.0035  0.0434  0.9697  -2.8001   0.0000   0.2379
   7.000   0.7672   0.00795   0.00324   0.0041  0.0366  0.9827  -3.1340   0.0000   0.2370
   7.500   0.8248   0.00834   0.00359   0.0037  0.0315  0.9907  -3.5108   0.0000   0.2374
   8.000   0.8863   0.00879   0.00400   0.0023  0.0269  0.9947  -3.9205   0.0000   0.2388
   8.500   0.9498   0.00925   0.00443   0.0004  0.0238  0.9966  -4.3670   0.0000   0.2405
   9.000   1.0130   0.00974   0.00490  -0.0014  0.0211  0.9981  -4.8417   0.0000   0.2418
   9.500   1.0752   0.01028   0.00541  -0.0031  0.0188  0.9996  -5.3307   0.0000   0.2426
  10.000   1.1243   0.01074   0.00588  -0.0020  0.0175  1.0000  -5.7939   0.0000   0.2409
  10.500   1.1683   0.01127   0.00641   0.0003  0.0162  1.0000  -6.2585   0.0000   0.2382
  11.000   1.2140   0.01180   0.00695   0.0021  0.0151  1.0000  -6.7478   0.0000   0.2361
  11.500   1.2608   0.01242   0.00758   0.0035  0.0140  1.0000  -7.2550   0.0000   0.2343
  12.000   1.3086   0.01303   0.00821   0.0047  0.0133  1.0000  -7.7842   0.0000   0.2327
  12.500   1.3546   0.01381   0.00901   0.0061  0.0122  1.0000  -8.3197   0.0000   0.2311
  13.000   1.4013   0.01450   0.00973   0.0073  0.0118  1.0000  -8.8975   0.0000   0.2296
  13.500   1.4465   0.01526   0.01052   0.0086  0.0112  1.0000  -9.4825   0.0000   0.2279
  14.000   1.4887   0.01621   0.01150   0.0104  0.0105  1.0000  -10.0612   0.0000   0.2261
  14.500   1.5297   0.01715   0.01250   0.0122  0.0101  1.0000  -10.6464   0.0000   0.2242
  15.000   1.5690   0.01809   0.01349   0.0142  0.0098  1.0000  -11.2380   0.0000   0.2222
  15.500   1.6026   0.01915   0.01461   0.0171  0.0094  1.0000  -11.8029   0.0000   0.2197
  16.000   1.6276   0.02044   0.01597   0.0210  0.0091  1.0000  -12.3194   0.0000   0.2165
  16.500   1.6472   0.02220   0.01783   0.0249  0.0086  1.0000  -12.7951   0.0000   0.2134
  17.000   1.6665   0.02419   0.01991   0.0280  0.0084  1.0000  -13.2753   0.0000   0.2107
  17.500   1.6849   0.02647   0.02230   0.0303  0.0083  1.0000  -13.7733   0.0000   0.2084
  18.000   1.6990   0.02943   0.02537   0.0319  0.0081  1.0000  -14.2394   0.0000   0.2065
  18.500   1.7081   0.03323   0.02930   0.0327  0.0080  1.0000  -14.6612   0.0000   0.2050
  19.000   1.7105   0.03820   0.03441   0.0323  0.0078  1.0000  -15.0189   0.0000   0.2040
  19.500   1.7037   0.04477   0.04114   0.0305  0.0076  1.0000  -15.2809   0.0000   0.2036
  20.000   1.6840   0.05351   0.05007   0.0271  0.0075  1.0000  -15.4014   0.0000   0.2040
  20.500   1.6474   0.06520   0.06198   0.0218  0.0074  1.0000  -15.3266   0.0000   0.2055
  21.000   1.5894   0.08077   0.07781   0.0140  0.0074  1.0000  -14.9858   0.0000   0.2084
  21.500   1.5072   0.10098   0.09834   0.0033  0.0074  1.0000  -14.3125   0.0000   0.2136
  22.000   1.4061   0.12574   0.12345  -0.0113  0.0076  1.0000  -13.2872   0.0000   0.2225
  22.500   1.3027   0.15293   0.15100  -0.0298  0.0077  1.0000  -12.0095   0.0000   0.2362
  23.000   1.2260   0.17688   0.17522  -0.0478  0.0077  1.0000  -10.8685   0.0000   0.2514
  23.500   1.1847   0.19465   0.19315  -0.0618  0.0075  1.0000  -10.1273   0.0000   0.2638
  24.000   1.1611   0.20897   0.20759  -0.0734  0.0073  1.0000  -9.5970   0.0000   0.2740
  24.500   1.1514   0.22025   0.21893  -0.0828  0.0069  1.0000  -9.2762   0.0000   0.2817
  25.000   1.1484   0.22991   0.22867  -0.0911  0.0068  1.0000  -9.0674   0.0000   0.2880
  25.500   1.1470   0.23935   0.23818  -0.0992  0.0066  1.0000  -8.8480   0.0000   0.2942
  26.000   1.1447   0.24927   0.24817  -0.1077  0.0063  1.0000  -8.5426   0.0000   0.3009
  26.500   1.1446   0.25870   0.25765  -0.1159  0.0060  1.0000  -8.2509   0.0000   0.3071
  27.000   1.1474   0.26735   0.26634  -0.1236  0.0056  1.0000  -8.0295   0.0000   0.3125


