xflr5 v6.33

 Calculated polar for: NACA 0012 v1

 1 1 Reynolds number fixed          Mach number fixed         

 xtrf =   1.000 (top)        1.000 (bottom)
 Mach =   0.000     Re =     4.800 e 6     Ncrit =   9.000

  alpha     CL        CD       CDp       Cm    Top Xtr Bot Xtr   Cpmin    Chinge    XCp    
 ------- -------- --------- --------- -------- ------- ------- -------- --------- ---------
 -27.500  -1.1545   0.27322   0.27232   0.1300  1.0000  0.0051  -8.0231   0.0000   0.3158
 -27.000  -1.1595   0.26178   0.26080   0.1204  1.0000  0.0054  -8.5606   0.0000   0.3077
 -26.500  -1.1565   0.25364   0.25260   0.1130  1.0000  0.0056  -8.7403   0.0000   0.3026
 -26.000  -1.1550   0.24510   0.24403   0.1053  1.0000  0.0060  -8.9371   0.0000   0.2971
 -25.500  -1.1563   0.23582   0.23470   0.0971  1.0000  0.0063  -9.1695   0.0000   0.2910
 -25.000  -1.1614   0.22557   0.22438   0.0884  1.0000  0.0065  -9.4523   0.0000   0.2840
 -24.500  -1.1703   0.21465   0.21338   0.0791  1.0000  0.0067  -9.7661   0.0000   0.2764
 -24.000  -1.1857   0.20235   0.20097   0.0689  1.0000  0.0068  -10.1558   0.0000   0.2679
 -23.500  -1.2201   0.18597   0.18444   0.0558  1.0000  0.0069  -10.8275   0.0000   0.2563
 -23.000  -1.2956   0.16180   0.16000   0.0371  1.0000  0.0069  -12.0412   0.0000   0.2400
 -22.500  -1.4139   0.13146   0.12928   0.0157  1.0000  0.0068  -13.6081   0.0000   0.2234
 -22.000  -1.5259   0.10475   0.10221  -0.0005  1.0000  0.0068  -14.8082   0.0000   0.2133
 -21.500  -1.6154   0.08341   0.08055  -0.0119  1.0000  0.0068  -15.5825   0.0000   0.2077
 -21.000  -1.6763   0.06750   0.06438  -0.0198  1.0000  0.0068  -15.9589   0.0000   0.2048
 -20.500  -1.7136   0.05570   0.05236  -0.0252  1.0000  0.0068  -16.0426   0.0000   0.2033
 -20.000  -1.7340   0.04682   0.04329  -0.0287  1.0000  0.0068  -15.9269   0.0000   0.2029
 -19.500  -1.7419   0.04005   0.03636  -0.0307  1.0000  0.0069  -15.6711   0.0000   0.2032
 -19.000  -1.7459   0.03426   0.03041  -0.0316  1.0000  0.0070  -15.3725   0.0000   0.2040
 -18.500  -1.7441   0.02969   0.02571  -0.0310  1.0000  0.0073  -15.0115   0.0000   0.2056
 -18.000  -1.7340   0.02639   0.02230  -0.0293  1.0000  0.0076  -14.5694   0.0000   0.2076
 -17.500  -1.7183   0.02390   0.01972  -0.0270  1.0000  0.0079  -14.0776   0.0000   0.2100
 -17.000  -1.6983   0.02198   0.01772  -0.0241  1.0000  0.0081  -13.5538   0.0000   0.2126
 -16.500  -1.6746   0.02048   0.01613  -0.0208  1.0000  0.0083  -13.0269   0.0000   0.2153
 -16.000  -1.6481   0.01926   0.01485  -0.0173  1.0000  0.0084  -12.4855   0.0000   0.2182
 -15.500  -1.6188   0.01817   0.01369  -0.0138  1.0000  0.0086  -11.9359   0.0000   0.2212
 -15.000  -1.5832   0.01702   0.01250  -0.0114  1.0000  0.0092  -11.3588   0.0000   0.2235
 -14.500  -1.5428   0.01609   0.01152  -0.0095  1.0000  0.0096  -10.7573   0.0000   0.2254
 -14.000  -1.4995   0.01528   0.01068  -0.0080  1.0000  0.0100  -10.1503   0.0000   0.2271
 -13.500  -1.4542   0.01456   0.00992  -0.0067  1.0000  0.0103  -9.5453   0.0000   0.2287
 -13.000  -1.4096   0.01371   0.00905  -0.0053  1.0000  0.0112  -8.9648   0.0000   0.2304
 -12.500  -1.3625   0.01303   0.00836  -0.0042  1.0000  0.0118  -8.3817   0.0000   0.2319
 -12.000  -1.3143   0.01245   0.00775  -0.0032  1.0000  0.0122  -7.8264   0.0000   0.2334
 -11.500  -1.2672   0.01178   0.00708  -0.0019  1.0000  0.0133  -7.3014   0.0000   0.2350
 -11.000  -1.2200   0.01126   0.00655  -0.0005  1.0000  0.0141  -6.7875   0.0000   0.2369
 -10.500  -1.1752   0.01072   0.00602   0.0015  1.0000  0.0153  -6.3019   0.0000   0.2393
 -10.000  -1.1288   0.01026   0.00556   0.0032  0.9999  0.0164  -5.8221   0.0000   0.2415
  -9.500  -1.0677   0.00972   0.00504   0.0017  0.9986  0.0182  -5.3076   0.0000   0.2409
  -9.000  -1.0055   0.00924   0.00457  -0.0000  0.9970  0.0202  -4.8183   0.0000   0.2399
  -8.500  -0.9424   0.00878   0.00414  -0.0019  0.9957  0.0227  -4.3440   0.0000   0.2385
  -8.000  -0.8822   0.00835   0.00375  -0.0031  0.9914  0.0257  -3.9103   0.0000   0.2376
  -7.500  -0.8255   0.00797   0.00339  -0.0033  0.9832  0.0295  -3.5160   0.0000   0.2375
  -7.000  -0.7727   0.00763   0.00307  -0.0026  0.9701  0.0339  -3.1533   0.0000   0.2387
  -6.000  -0.6666   0.00702   0.00247  -0.0013  0.9319  0.0477  -2.5022   0.0000   0.2410
  -5.500  -0.6123   0.00674   0.00219  -0.0009  0.9061  0.0583  -2.2075   0.0000   0.2419
  -5.000  -0.5577   0.00650   0.00194  -0.0006  0.8753  0.0724  -1.9347   0.0000   0.2427
  -4.500  -0.5027   0.00626   0.00170  -0.0003  0.8397  0.0914  -1.6836   0.0000   0.2434
  -4.000  -0.4475   0.00604   0.00148  -0.0001  0.7998  0.1159  -1.4553   0.0000   0.2440
  -3.500  -0.3921   0.00584   0.00129  -0.0000  0.7575  0.1466  -1.2495   0.0000   0.2446
  -3.000  -0.3366   0.00565   0.00113   0.0001  0.7132  0.1825  -1.0679   0.0000   0.2451
  -2.500  -0.2809   0.00549   0.00099   0.0001  0.6683  0.2224  -0.9082   0.0000   0.2455
  -2.000  -0.2250   0.00535   0.00088   0.0002  0.6234  0.2652  -0.7709   0.0000   0.2459
  -1.500  -0.1689   0.00524   0.00079   0.0001  0.5784  0.3093  -0.6551   0.0000   0.2462
  -1.000  -0.1127   0.00516   0.00073   0.0001  0.5339  0.3544  -0.5589   0.0000   0.2464
  -0.500  -0.0564   0.00512   0.00070   0.0001  0.4891  0.3995  -0.4794   0.0000   0.2466
   0.000  -0.0000   0.00510   0.00068  -0.0000  0.4444  0.4444  -0.4128   0.0000   0.4004
   0.500   0.0564   0.00512   0.00070  -0.0001  0.3995  0.4891  -0.4794   0.0000   0.2466
   1.000   0.1127   0.00516   0.00073  -0.0001  0.3544  0.5339  -0.5589   0.0000   0.2464
   1.500   0.1689   0.00524   0.00079  -0.0001  0.3093  0.5783  -0.6551   0.0000   0.2462
   2.000   0.2250   0.00535   0.00088  -0.0001  0.2652  0.6234  -0.7709   0.0000   0.2459
   2.500   0.2809   0.00549   0.00099  -0.0001  0.2224  0.6683  -0.9082   0.0000   0.2456
   3.000   0.3366   0.00565   0.00113  -0.0000  0.1825  0.7132  -1.0679   0.0000   0.2451
   3.500   0.3922   0.00584   0.00129   0.0001  0.1466  0.7575  -1.2495   0.0000   0.2446
   4.000   0.4475   0.00604   0.00148   0.0002  0.1159  0.7998  -1.4554   0.0000   0.2440
   4.500   0.5027   0.00626   0.00170   0.0004  0.0914  0.8397  -1.6837   0.0000   0.2434
   5.000   0.5577   0.00650   0.00194   0.0007  0.0724  0.8753  -1.9348   0.0000   0.2427
   5.500   0.6124   0.00674   0.00219   0.0010  0.0583  0.9061  -2.2076   0.0000   0.2419
   6.000   0.6666   0.00702   0.00247   0.0015  0.0477  0.9318  -2.5023   0.0000   0.2410
   7.000   0.7728   0.00763   0.00307   0.0029  0.0339  0.9701  -3.1534   0.0000   0.2387
   7.500   0.8255   0.00797   0.00339   0.0036  0.0295  0.9832  -3.5162   0.0000   0.2376
   8.000   0.8822   0.00835   0.00375   0.0034  0.0257  0.9914  -3.9105   0.0000   0.2376
   8.500   0.9425   0.00878   0.00414   0.0022  0.0227  0.9957  -4.3442   0.0000   0.2385
   9.000   1.0056   0.00924   0.00457   0.0004  0.0202  0.9971  -4.8185   0.0000   0.2399
   9.500   1.0677   0.00972   0.00504  -0.0012  0.0182  0.9986  -5.3079   0.0000   0.2409
  10.000   1.1288   0.01026   0.00556  -0.0027  0.0164  0.9999  -5.8224   0.0000   0.2415
  10.500   1.1751   0.01072   0.00601  -0.0009  0.0153  1.0000  -6.3015   0.0000   0.2392
  11.000   1.2200   0.01126   0.00655   0.0011  0.0141  1.0000  -6.7874   0.0000   0.2369
  11.500   1.2672   0.01178   0.00708   0.0025  0.0133  1.0000  -7.3016   0.0000   0.2351
  12.000   1.3144   0.01245   0.00775   0.0038  0.0122  1.0000  -7.8269   0.0000   0.2334
  12.500   1.3626   0.01303   0.00836   0.0049  0.0118  1.0000  -8.3823   0.0000   0.2319
  13.000   1.4097   0.01371   0.00905   0.0061  0.0112  1.0000  -8.9657   0.0000   0.2304
  13.500   1.4544   0.01456   0.00993   0.0075  0.0103  1.0000  -9.5463   0.0000   0.2287
  14.000   1.4998   0.01528   0.01068   0.0089  0.0100  1.0000  -10.1517   0.0000   0.2272
  14.500   1.5431   0.01609   0.01152   0.0104  0.0096  1.0000  -10.7590   0.0000   0.2254
  15.000   1.5835   0.01702   0.01250   0.0123  0.0092  1.0000  -11.3608   0.0000   0.2235
  15.500   1.6192   0.01817   0.01369   0.0148  0.0086  1.0000  -11.9384   0.0000   0.2212
  16.000   1.6487   0.01926   0.01485   0.0183  0.0084  1.0000  -12.4896   0.0000   0.2183
  16.500   1.6753   0.02047   0.01613   0.0219  0.0083  1.0000  -13.0317   0.0000   0.2154
  17.000   1.6991   0.02198   0.01771   0.0251  0.0081  1.0000  -13.5594   0.0000   0.2126
  17.500   1.7192   0.02389   0.01971   0.0281  0.0079  1.0000  -14.0844   0.0000   0.2101
  18.000   1.7351   0.02637   0.02228   0.0305  0.0076  1.0000  -14.5773   0.0000   0.2077
  18.500   1.7452   0.02967   0.02569   0.0322  0.0073  1.0000  -15.0206   0.0000   0.2057
  19.000   1.7472   0.03423   0.03038   0.0328  0.0070  1.0000  -15.3827   0.0000   0.2042
  19.500   1.7436   0.03998   0.03629   0.0320  0.0069  1.0000  -15.6855   0.0000   0.2033
  20.000   1.7360   0.04673   0.04320   0.0300  0.0068  1.0000  -15.9441   0.0000   0.2030
  20.500   1.7158   0.05559   0.05224   0.0265  0.0068  1.0000  -16.0621   0.0000   0.2035
  21.000   1.6788   0.06735   0.06422   0.0210  0.0068  1.0000  -15.9821   0.0000   0.2049
  21.500   1.6183   0.08322   0.08035   0.0131  0.0068  1.0000  -15.6096   0.0000   0.2078
  22.000   1.5289   0.10453   0.10198   0.0017  0.0068  1.0000  -14.8376   0.0000   0.2133
  22.500   1.4162   0.13135   0.12917  -0.0147  0.0068  1.0000  -13.6315   0.0000   0.2235
  23.000   1.2973   0.16188   0.16008  -0.0364  0.0069  1.0000  -12.0572   0.0000   0.2401
  23.500   1.2215   0.18614   0.18461  -0.0552  0.0069  1.0000  -10.8382   0.0000   0.2564
  24.000   1.1870   0.20256   0.20119  -0.0685  0.0068  1.0000  -10.1644   0.0000   0.2680
  24.500   1.1716   0.21498   0.21371  -0.0787  0.0067  1.0000  -9.7739   0.0000   0.2766
  25.000   1.1627   0.22601   0.22482  -0.0881  0.0065  1.0000  -9.4598   0.0000   0.2841
  25.500   1.1577   0.23628   0.23516  -0.0969  0.0063  1.0000  -9.1765   0.0000   0.2911
  26.000   1.1564   0.24570   0.24463  -0.1051  0.0060  1.0000  -8.9435   0.0000   0.2973
  26.500   1.1580   0.25434   0.25330  -0.1129  0.0056  1.0000  -8.7487   0.0000   0.3028
  27.000   1.1611   0.26259   0.26161  -0.1203  0.0054  1.0000  -8.5672   0.0000   0.3079
  27.500   1.1560   0.27416   0.27326  -0.1300  0.0051  1.0000  -8.0286   0.0000   0.3160
  28.000   1.1517   0.28640   0.28556  -0.1397  0.0045  1.0000  -7.3524   0.0000   0.3246


