xflr5 v6.33

 Calculated polar for: NACA 0012 v1

 1 1 Reynolds number fixed          Mach number fixed         

 xtrf =   1.000 (top)        1.000 (bottom)
 Mach =   0.000     Re =     1.300 e 6     Ncrit =   9.000

  alpha     CL        CD       CDp       Cm    Top Xtr Bot Xtr   Cpmin    Chinge    XCp    
 ------- -------- --------- --------- -------- ------- ------- -------- --------- ---------
 -26.000  -0.6523   0.27958   0.27828   0.0661  1.0000  0.0066  -1.3190   0.0000   0.3282
 -22.500  -1.0847   0.20075   0.19897   0.0659  1.0000  0.0109  -8.0526   0.0000   0.2755
 -22.000  -1.1121   0.18476   0.18280   0.0539  1.0000  0.0112  -8.6808   0.0000   0.2637
 -21.500  -1.1317   0.17151   0.16940   0.0441  1.0000  0.0114  -9.0422   0.0000   0.2550
 -21.000  -1.1512   0.15876   0.15649   0.0349  1.0000  0.0117  -9.3248   0.0000   0.2474
 -20.500  -1.1731   0.14593   0.14351   0.0262  1.0000  0.0118  -9.5764   0.0000   0.2404
 -20.000  -1.1995   0.13253   0.12993   0.0176  1.0000  0.0120  -9.8295   0.0000   0.2338
 -19.500  -1.2331   0.11822   0.11543   0.0091  1.0000  0.0120  -10.1081   0.0000   0.2275
 -19.000  -1.2759   0.10277   0.09976   0.0005  1.0000  0.0121  -10.4344   0.0000   0.2217
 -18.500  -1.3264   0.08661   0.08335  -0.0079  1.0000  0.0121  -10.7836   0.0000   0.2165
 -18.000  -1.3743   0.07149   0.06797  -0.0155  1.0000  0.0121  -11.0566   0.0000   0.2124
 -17.500  -1.4087   0.05902   0.05523  -0.0218  1.0000  0.0122  -11.1650   0.0000   0.2095
 -17.000  -1.4435   0.04717   0.04310  -0.0275  1.0000  0.0123  -11.2510   0.0000   0.2072
 -16.500  -1.4591   0.03895   0.03467  -0.0304  1.0000  0.0126  -11.1370   0.0000   0.2066
 -16.000  -1.4577   0.03369   0.02923  -0.0311  1.0000  0.0129  -10.8600   0.0000   0.2073
 -15.500  -1.4472   0.02999   0.02538  -0.0302  1.0000  0.0133  -10.5047   0.0000   0.2088
 -15.000  -1.4322   0.02715   0.02238  -0.0282  1.0000  0.0138  -10.1180   0.0000   0.2110
 -14.500  -1.4121   0.02501   0.02007  -0.0256  1.0000  0.0142  -9.6987   0.0000   0.2136
 -14.000  -1.3996   0.02265   0.01757  -0.0212  1.0000  0.0147  -9.3371   0.0000   0.2174
 -13.500  -1.3749   0.02118   0.01601  -0.0173  1.0000  0.0154  -8.8905   0.0000   0.2208
 -13.000  -1.3401   0.01995   0.01467  -0.0148  1.0000  0.0161  -8.3956   0.0000   0.2232
 -12.500  -1.3043   0.01861   0.01323  -0.0124  1.0000  0.0169  -7.9119   0.0000   0.2256
 -12.000  -1.2638   0.01755   0.01210  -0.0105  1.0000  0.0180  -7.4245   0.0000   0.2275
 -11.500  -1.2212   0.01657   0.01103  -0.0088  1.0000  0.0191  -6.9481   0.0000   0.2294
 -11.000  -1.1786   0.01556   0.00998  -0.0070  1.0000  0.0204  -6.4810   0.0000   0.2314
 -10.500  -1.1344   0.01470   0.00906  -0.0053  1.0000  0.0219  -6.0200   0.0000   0.2333
 -10.000  -1.0895   0.01397   0.00828  -0.0036  1.0000  0.0238  -5.5654   0.0000   0.2354
  -9.500  -1.0464   0.01320   0.00749  -0.0015  1.0000  0.0259  -5.1502   0.0000   0.2379
  -9.000  -1.0034   0.01253   0.00680   0.0008  1.0000  0.0284  -4.7522   0.0000   0.2408
  -8.500  -0.9609   0.01192   0.00618   0.0033  1.0000  0.0315  -4.3671   0.0000   0.2439
  -8.000  -0.9189   0.01136   0.00562   0.0059  1.0000  0.0353  -4.0012   0.0000   0.2475
  -7.500  -0.8768   0.01086   0.00512   0.0085  1.0000  0.0401  -3.6599   0.0000   0.2513
  -7.000  -0.8097   0.01025   0.00456   0.0057  0.9975  0.0481  -3.2472   0.0000   0.2492
  -6.500  -0.7418   0.00969   0.00406   0.0028  0.9948  0.0597  -2.8677   0.0000   0.2463
  -6.000  -0.6742   0.00911   0.00359  -0.0000  0.9914  0.0769  -2.5113   0.0000   0.2429
  -5.500  -0.6060   0.00853   0.00315  -0.0030  0.9879  0.1019  -2.1833   0.0000   0.2384
  -5.000  -0.5411   0.00794   0.00274  -0.0051  0.9816  0.1361  -1.8915   0.0000   0.2341
  -4.500  -0.4823   0.00740   0.00239  -0.0058  0.9704  0.1779  -1.6379   0.0000   0.2318
  -4.000  -0.4287   0.00691   0.00208  -0.0052  0.9534  0.2253  -1.4179   0.0000   0.2319
  -3.500  -0.3766   0.00649   0.00182  -0.0043  0.9315  0.2760  -1.2232   0.0000   0.2331
  -3.000  -0.3241   0.00613   0.00159  -0.0034  0.9044  0.3290  -1.0489   0.0000   0.2342
  -2.500  -0.2709   0.00584   0.00140  -0.0026  0.8719  0.3826  -0.8956   0.0000   0.2352
  -2.000  -0.2173   0.00562   0.00125  -0.0020  0.8342  0.4363  -0.7628   0.0000   0.2360
  -1.500  -0.1632   0.00547   0.00114  -0.0014  0.7915  0.4897  -0.6505   0.0000   0.2365
  -1.000  -0.1090   0.00536   0.00106  -0.0009  0.7452  0.5426  -0.5567   0.0000   0.2370
  -0.500  -0.0545   0.00530   0.00101  -0.0004  0.6964  0.5948  -0.4789   0.0000   0.2372
   0.000  -0.0000   0.00529   0.00099  -0.0000  0.6460  0.6461  -0.4135   0.0000   0.4556
   0.500   0.0545   0.00530   0.00101   0.0004  0.5948  0.6964  -0.4789   0.0000   0.2372
   1.000   0.1090   0.00536   0.00106   0.0009  0.5426  0.7453  -0.5567   0.0000   0.2370
   1.500   0.1632   0.00547   0.00114   0.0014  0.4897  0.7915  -0.6505   0.0000   0.2365
   2.000   0.2173   0.00562   0.00125   0.0020  0.4363  0.8342  -0.7628   0.0000   0.2360
   2.500   0.2710   0.00584   0.00140   0.0027  0.3826  0.8719  -0.8956   0.0000   0.2352
   3.000   0.3241   0.00613   0.00159   0.0034  0.3290  0.9044  -1.0489   0.0000   0.2342
   3.500   0.3766   0.00649   0.00182   0.0043  0.2760  0.9315  -1.2233   0.0000   0.2331
   4.000   0.4287   0.00691   0.00208   0.0053  0.2253  0.9534  -1.4180   0.0000   0.2319
   4.500   0.4823   0.00740   0.00239   0.0059  0.1779  0.9704  -1.6380   0.0000   0.2318
   5.000   0.5412   0.00794   0.00274   0.0052  0.1360  0.9816  -1.8916   0.0000   0.2342
   5.500   0.6061   0.00852   0.00315   0.0031  0.1019  0.9879  -2.1833   0.0000   0.2384
   6.000   0.6742   0.00911   0.00359   0.0002  0.0769  0.9915  -2.5113   0.0000   0.2429
   6.500   0.7418   0.00969   0.00406  -0.0026  0.0597  0.9948  -2.8678   0.0000   0.2463
   7.000   0.8097   0.01025   0.00456  -0.0055  0.0481  0.9975  -3.2473   0.0000   0.2492
   7.500   0.8768   0.01086   0.00512  -0.0082  0.0401  1.0000  -3.6599   0.0000   0.2513
   8.000   0.9188   0.01136   0.00562  -0.0056  0.0353  1.0000  -4.0009   0.0000   0.2475
   8.500   0.9608   0.01192   0.00618  -0.0029  0.0315  1.0000  -4.3668   0.0000   0.2439
   9.000   1.0033   0.01253   0.00680  -0.0004  0.0284  1.0000  -4.7520   0.0000   0.2408
   9.500   1.0464   0.01320   0.00749   0.0019  0.0259  1.0000  -5.1501   0.0000   0.2379
  10.000   1.0895   0.01397   0.00828   0.0041  0.0238  1.0000  -5.5654   0.0000   0.2354
  10.500   1.1344   0.01470   0.00906   0.0058  0.0219  1.0000  -6.0203   0.0000   0.2333
  11.000   1.1787   0.01556   0.00998   0.0075  0.0204  1.0000  -6.4814   0.0000   0.2314
  11.500   1.2214   0.01657   0.01104   0.0093  0.0191  1.0000  -6.9486   0.0000   0.2294
  12.000   1.2639   0.01755   0.01210   0.0111  0.0180  1.0000  -7.4254   0.0000   0.2276
  12.500   1.3045   0.01861   0.01323   0.0130  0.0169  1.0000  -7.9130   0.0000   0.2256
  13.000   1.3403   0.01995   0.01467   0.0155  0.0161  1.0000  -8.3971   0.0000   0.2232
  13.500   1.3753   0.02118   0.01601   0.0180  0.0154  1.0000  -8.8926   0.0000   0.2209
  14.000   1.4001   0.02265   0.01757   0.0219  0.0147  1.0000  -9.3398   0.0000   0.2175
  14.500   1.4128   0.02500   0.02006   0.0263  0.0142  1.0000  -9.7026   0.0000   0.2136
  15.000   1.4330   0.02714   0.02237   0.0290  0.0138  1.0000  -10.1225   0.0000   0.2111
  15.500   1.4481   0.02998   0.02536   0.0310  0.0133  1.0000  -10.5102   0.0000   0.2089
  16.000   1.4587   0.03366   0.02921   0.0319  0.0129  1.0000  -10.8667   0.0000   0.2074
  16.500   1.4602   0.03893   0.03465   0.0313  0.0126  1.0000  -11.1440   0.0000   0.2067
  17.000   1.4445   0.04717   0.04311   0.0283  0.0123  1.0000  -11.2568   0.0000   0.2074
  17.500   1.4102   0.05896   0.05517   0.0226  0.0121  1.0000  -11.1754   0.0000   0.2096
  18.000   1.3762   0.07139   0.06787   0.0163  0.0121  1.0000  -11.0707   0.0000   0.2125
  18.500   1.3282   0.08653   0.08327   0.0086  0.0121  1.0000  -10.7974   0.0000   0.2167
  19.000   1.2775   0.10273   0.09972   0.0001  0.0121  1.0000  -10.4462   0.0000   0.2219
  19.500   1.2345   0.11822   0.11543  -0.0085  0.0120  1.0000  -10.1177   0.0000   0.2277
  20.000   1.2008   0.13256   0.12996  -0.0171  0.0119  1.0000  -9.8371   0.0000   0.2340
  20.500   1.1742   0.14599   0.14356  -0.0257  0.0118  1.0000  -9.5827   0.0000   0.2406
  21.000   1.1523   0.15886   0.15659  -0.0345  0.0117  1.0000  -9.3304   0.0000   0.2476
  21.500   1.1328   0.17165   0.16954  -0.0437  0.0114  1.0000  -9.0470   0.0000   0.2552
  22.000   1.1132   0.18496   0.18300  -0.0536  0.0112  1.0000  -8.6857   0.0000   0.2639
  22.500   1.0860   0.20099   0.19921  -0.0656  0.0109  1.0000  -8.0616   0.0000   0.2756
  23.500   0.9718   0.27349   0.27193  -0.1079  0.0079  1.0000  -2.3236   0.0000   0.3311
  24.000   0.9877   0.27895   0.27740  -0.1127  0.0074  1.0000  -2.3697   0.0000   0.3331
  24.500   1.0037   0.28356   0.28202  -0.1173  0.0071  1.0000  -2.4820   0.0000   0.3346
  25.000   1.0195   0.28760   0.28606  -0.1216  0.0070  1.0000  -2.6413   0.0000   0.3357
  25.500   1.0341   0.29640   0.29486  -0.1278  0.0062  1.0000  -2.3144   0.0000   0.3394
  26.000   1.0494   0.30132   0.29979  -0.1327  0.0058  1.0000  -2.3626   0.0000   0.3411
  26.500   1.0645   0.30567   0.30415  -0.1375  0.0056  1.0000  -2.4680   0.0000   0.3424
  27.000   1.0790   0.30949   0.30798  -0.1421  0.0055  1.0000  -2.6266   0.0000   0.3435
  27.500   1.0940   0.31785   0.31634  -0.1483  0.0050  1.0000  -2.3215   0.0000   0.3465
  28.000   1.1084   0.32272   0.32122  -0.1534  0.0046  1.0000  -2.3592   0.0000   0.3481
  28.500   1.1224   0.32697   0.32548  -0.1584  0.0044  1.0000  -2.4484   0.0000   0.3494
  29.000   1.1357   0.33075   0.32928  -0.1633  0.0042  1.0000  -2.5762   0.0000   0.3505
  29.500   1.1484   0.33471   0.33324  -0.1681  0.0042  1.0000  -2.6837   0.0000   0.3514
  30.000   1.1638   0.34298   0.34152  -0.1746  0.0036  1.0000  -2.4025   0.0000   0.3542
  30.500   1.1767   0.34732   0.34587  -0.1798  0.0033  1.0000  -2.4738   0.0000   0.3555
  31.000   1.1890   0.35121   0.34977  -0.1851  0.0032  1.0000  -2.5416   0.0000   0.3567
  31.500   1.2005   0.35458   0.35315  -0.1902  0.0031  1.0000  -2.6292   0.0000   0.3577
  32.000   1.2122   0.35916   0.35774  -0.1956  0.0031  1.0000  -2.6867   0.0000   0.3590
  32.500   1.2265   0.36627   0.36486  -0.2017  0.0027  1.0000  -2.7935   0.0000   0.3609
  33.000   1.2379   0.37044   0.36905  -0.2071  0.0024  1.0000  -2.8686   0.0000   0.3621


