xflr5 v6.33

 Calculated polar for: NACA 0012-64

 1 1 Reynolds number fixed          Mach number fixed         

 xtrf =   1.000 (top)        1.000 (bottom)
 Mach =   0.000     Re =     4.300 e 6     Ncrit =   9.000

  alpha     CL        CD       CDp       Cm    Top Xtr Bot Xtr   Cpmin    Chinge    XCp    
 ------- -------- --------- --------- -------- ------- ------- -------- --------- ---------
 -26.500  -1.0276   0.27311   0.27216   0.0958  1.0000  0.0039  -7.3963   0.0000   0.2994
 -26.000  -1.0177   0.26637   0.26540   0.0899  1.0000  0.0041  -7.4009   0.0000   0.2958
 -25.500  -1.0107   0.25836   0.25738   0.0835  1.0000  0.0045  -7.5090   0.0000   0.2912
 -25.000  -1.0022   0.25102   0.25001   0.0775  1.0000  0.0049  -7.5262   0.0000   0.2870
 -24.500  -0.9999   0.24145   0.24040   0.0703  1.0000  0.0051  -7.7421   0.0000   0.2810
 -24.000  -0.9922   0.23397   0.23291   0.0644  1.0000  0.0056  -7.7341   0.0000   0.2767
 -23.500  -0.9974   0.22243   0.22133   0.0561  1.0000  0.0060  -8.0810   0.0000   0.2689
 -23.000  -1.0170   0.20693   0.20573   0.0454  1.0000  0.0064  -8.7256   0.0000   0.2579
 -22.500  -1.0852   0.18029   0.17888   0.0276  1.0000  0.0065  -10.2493   0.0000   0.2389
 -22.000  -1.5449   0.08427   0.08158  -0.0303  1.0000  0.0055  -17.2276   0.0000   0.1946
 -21.500  -1.6086   0.06743   0.06445  -0.0390  1.0000  0.0055  -17.6973   0.0000   0.1916
 -21.000  -1.6451   0.05594   0.05273  -0.0439  1.0000  0.0056  -17.7649   0.0000   0.1908
 -20.500  -1.6655   0.04756   0.04416  -0.0464  1.0000  0.0058  -17.6085   0.0000   0.1911
 -20.000  -1.6752   0.04123   0.03766  -0.0470  1.0000  0.0059  -17.3106   0.0000   0.1923
 -19.500  -1.6766   0.03637   0.03266  -0.0464  1.0000  0.0061  -16.9110   0.0000   0.1940
 -19.000  -1.6713   0.03252   0.02869  -0.0450  1.0000  0.0063  -16.4370   0.0000   0.1960
 -18.500  -1.6599   0.02945   0.02550  -0.0432  1.0000  0.0065  -15.9017   0.0000   0.1981
 -18.000  -1.6462   0.02677   0.02270  -0.0407  1.0000  0.0067  -15.3614   0.0000   0.2006
 -17.500  -1.6329   0.02423   0.02006  -0.0376  1.0000  0.0072  -14.8392   0.0000   0.2034
 -17.000  -1.6136   0.02225   0.01799  -0.0345  1.0000  0.0077  -14.2653   0.0000   0.2061
 -16.500  -1.5892   0.02068   0.01634  -0.0314  1.0000  0.0080  -13.6546   0.0000   0.2087
 -16.000  -1.5634   0.01925   0.01483  -0.0281  1.0000  0.0086  -13.0476   0.0000   0.2115
 -15.500  -1.5365   0.01792   0.01344  -0.0247  1.0000  0.0094  -12.4610   0.0000   0.2144
 -15.000  -1.5053   0.01690   0.01235  -0.0215  1.0000  0.0099  -11.8501   0.0000   0.2171
 -14.500  -1.4754   0.01587   0.01129  -0.0178  1.0000  0.0111  -11.2637   0.0000   0.2202
 -14.000  -1.4460   0.01506   0.01044  -0.0136  1.0000  0.0120  -10.6882   0.0000   0.2237
 -13.500  -1.4175   0.01432   0.00968  -0.0090  1.0000  0.0135  -10.1312   0.0000   0.2276
 -12.500  -1.3303   0.01300   0.00833  -0.0058  0.9985  0.0160  -8.8638   0.0000   0.2312
 -12.000  -1.2741   0.01239   0.00772  -0.0068  0.9972  0.0172  -8.1807   0.0000   0.2310
 -11.500  -1.2166   0.01183   0.00714  -0.0080  0.9961  0.0180  -7.5135   0.0000   0.2305
 -11.000  -1.1584   0.01124   0.00657  -0.0094  0.9953  0.0195  -6.8673   0.0000   0.2298
 -10.500  -1.1020   0.01080   0.00615  -0.0101  0.9925  0.0205  -6.2525   0.0000   0.2294
 -10.000  -1.0457   0.01042   0.00576  -0.0108  0.9888  0.0209  -5.6709   0.0000   0.2289
  -9.500  -0.9957   0.00988   0.00520  -0.0100  0.9823  0.0222  -5.1915   0.0000   0.2297
  -9.000  -0.9459   0.00948   0.00480  -0.0091  0.9751  0.0232  -4.7401   0.0000   0.2308
  -8.500  -0.8955   0.00914   0.00445  -0.0083  0.9674  0.0241  -4.3017   0.0000   0.2318
  -8.000  -0.8442   0.00884   0.00413  -0.0076  0.9589  0.0246  -3.8899   0.0000   0.2326
  -7.500  -0.7924   0.00848   0.00374  -0.0070  0.9501  0.0255  -3.5196   0.0000   0.2332
  -7.000  -0.7402   0.00811   0.00337  -0.0064  0.9411  0.0271  -3.1978   0.0000   0.2338
  -6.500  -0.6871   0.00781   0.00305  -0.0061  0.9314  0.0281  -2.9164   0.0000   0.2341
  -6.000  -0.6333   0.00756   0.00277  -0.0058  0.9210  0.0288  -2.6420   0.0000   0.2342
  -4.500  -0.4708   0.00679   0.00198  -0.0051  0.8841  0.0373  -1.8770   0.0000   0.2334
  -4.000  -0.4172   0.00645   0.00173  -0.0048  0.8707  0.0567  -1.6428   0.0000   0.2331
  -3.500  -0.3628   0.00619   0.00153  -0.0046  0.8563  0.0767  -1.4289   0.0000   0.2320
  -3.000  -0.3082   0.00595   0.00136  -0.0045  0.8410  0.0993  -1.2224   0.0000   0.2304
  -2.500  -0.2547   0.00565   0.00119  -0.0042  0.8226  0.1433  -1.0367   0.0000   0.2289
  -2.000  -0.2014   0.00541   0.00104  -0.0038  0.7954  0.1930  -0.8616   0.0000   0.2267
  -1.500  -0.1499   0.00508   0.00090  -0.0030  0.7593  0.2777  -0.6969   0.0000   0.2251
  -1.000  -0.1007   0.00456   0.00074  -0.0019  0.7246  0.4168  -0.5428   0.0000   0.2262
  -0.500  -0.0501   0.00426   0.00064  -0.0010  0.6820  0.5214  -0.4237   0.0000   0.2248
   0.000   0.0000   0.00431   0.00063  -0.0000  0.5931  0.5931  -0.3385   0.0000   0.4750
   0.500   0.0501   0.00426   0.00064   0.0010  0.5214  0.6820  -0.4237   0.0000   0.2248
   1.000   0.1007   0.00456   0.00074   0.0019  0.4168  0.7246  -0.5428   0.0000   0.2262
   1.500   0.1499   0.00508   0.00090   0.0030  0.2777  0.7593  -0.6969   0.0000   0.2251
   2.000   0.2014   0.00541   0.00104   0.0038  0.1930  0.7954  -0.8616   0.0000   0.2267
   2.500   0.2547   0.00565   0.00119   0.0042  0.1433  0.8226  -1.0367   0.0000   0.2289
   3.000   0.3083   0.00595   0.00136   0.0045  0.0993  0.8410  -1.2224   0.0000   0.2305
   3.500   0.3629   0.00619   0.00153   0.0046  0.0767  0.8563  -1.4289   0.0000   0.2321
   4.000   0.4172   0.00645   0.00173   0.0048  0.0567  0.8707  -1.6429   0.0000   0.2331
   4.500   0.4708   0.00679   0.00198   0.0051  0.0373  0.8841  -1.8771   0.0000   0.2335
   5.500   0.5793   0.00730   0.00249   0.0055  0.0300  0.9095  -2.3786   0.0000   0.2342
   6.000   0.6334   0.00756   0.00277   0.0058  0.0288  0.9209  -2.6422   0.0000   0.2342
   6.500   0.6871   0.00781   0.00305   0.0060  0.0281  0.9314  -2.9166   0.0000   0.2342
   7.000   0.7403   0.00811   0.00337   0.0064  0.0271  0.9411  -3.1981   0.0000   0.2339
   7.500   0.7925   0.00848   0.00374   0.0069  0.0255  0.9501  -3.5200   0.0000   0.2333
   8.000   0.8443   0.00884   0.00413   0.0075  0.0246  0.9588  -3.8904   0.0000   0.2326
   8.500   0.8957   0.00914   0.00445   0.0082  0.0241  0.9674  -4.3024   0.0000   0.2318
   9.000   0.9461   0.00948   0.00480   0.0091  0.0232  0.9750  -4.7408   0.0000   0.2308
   9.500   0.9959   0.00988   0.00520   0.0100  0.0222  0.9823  -5.1923   0.0000   0.2298
  10.000   1.0459   0.01042   0.00576   0.0108  0.0209  0.9888  -5.6717   0.0000   0.2289
  10.500   1.1022   0.01080   0.00615   0.0101  0.0205  0.9925  -6.2534   0.0000   0.2294
  11.000   1.1586   0.01124   0.00657   0.0093  0.0195  0.9953  -6.8685   0.0000   0.2298
  11.500   1.2168   0.01183   0.00714   0.0080  0.0180  0.9961  -7.5148   0.0000   0.2306
  12.000   1.2744   0.01239   0.00772   0.0068  0.0172  0.9972  -8.1821   0.0000   0.2311
  12.500   1.3306   0.01300   0.00833   0.0058  0.0160  0.9985  -8.8655   0.0000   0.2313
  13.000   1.3845   0.01373   0.00907   0.0051  0.0146  0.9997  -9.5544   0.0000   0.2311
  13.500   1.4175   0.01432   0.00968   0.0090  0.0135  1.0000  -10.1312   0.0000   0.2276
  14.000   1.4463   0.01506   0.01044   0.0135  0.0120  1.0000  -10.6903   0.0000   0.2238
  14.500   1.4760   0.01588   0.01129   0.0177  0.0111  1.0000  -11.2680   0.0000   0.2203
  15.000   1.5060   0.01690   0.01235   0.0214  0.0099  1.0000  -11.8554   0.0000   0.2172
  15.500   1.5373   0.01792   0.01344   0.0245  0.0094  1.0000  -12.4671   0.0000   0.2145
  16.000   1.5644   0.01925   0.01483   0.0279  0.0086  1.0000  -13.0545   0.0000   0.2116
  16.500   1.5903   0.02068   0.01634   0.0312  0.0080  1.0000  -13.6633   0.0000   0.2089
  17.000   1.6148   0.02224   0.01798   0.0342  0.0077  1.0000  -14.2751   0.0000   0.2063
  17.500   1.6342   0.02422   0.02005   0.0374  0.0072  1.0000  -14.8502   0.0000   0.2035
  18.000   1.6477   0.02675   0.02268   0.0405  0.0067  1.0000  -15.3737   0.0000   0.2007
  18.500   1.6617   0.02942   0.02546   0.0429  0.0064  1.0000  -15.9180   0.0000   0.1983
  19.000   1.6733   0.03248   0.02864   0.0448  0.0063  1.0000  -16.4553   0.0000   0.1962
  19.500   1.6788   0.03631   0.03260   0.0461  0.0061  1.0000  -16.9315   0.0000   0.1942
  20.000   1.6776   0.04116   0.03759   0.0467  0.0059  1.0000  -17.3332   0.0000   0.1925
  20.500   1.6681   0.04747   0.04407   0.0460  0.0058  1.0000  -17.6336   0.0000   0.1914
  21.000   1.6479   0.05584   0.05263   0.0436  0.0056  1.0000  -17.7922   0.0000   0.1910
  21.500   1.6115   0.06732   0.06434   0.0387  0.0054  1.0000  -17.7257   0.0000   0.1919
  22.000   1.5480   0.08413   0.08144   0.0300  0.0054  1.0000  -17.2590   0.0000   0.1949
  22.500   1.4031   0.11620   0.11401   0.0122  0.0058  1.0000  -15.5445   0.0000   0.2039
  23.000   1.0185   0.20742   0.20622  -0.0459  0.0064  1.0000  -8.7297   0.0000   0.2583
  23.500   0.9990   0.22302   0.22192  -0.0566  0.0060  1.0000  -8.0866   0.0000   0.2692
  24.000   0.9939   0.23469   0.23363  -0.0649  0.0056  1.0000  -7.7398   0.0000   0.2771
  24.500   1.0017   0.24224   0.24119  -0.0708  0.0051  1.0000  -7.7485   0.0000   0.2813
  25.000   1.0041   0.25195   0.25095  -0.0780  0.0048  1.0000  -7.5334   0.0000   0.2874
  25.500   1.0125   0.25943   0.25844  -0.0840  0.0045  1.0000  -7.5157   0.0000   0.2915
  26.000   1.0197   0.26753   0.26656  -0.0905  0.0041  1.0000  -7.4112   0.0000   0.2962
  26.500   1.0296   0.27446   0.27352  -0.0963  0.0039  1.0000  -7.4005   0.0000   0.2998


