xflr5 v6.33

 Calculated polar for: NACA 0012-64

 1 1 Reynolds number fixed          Mach number fixed         

 xtrf =   1.000 (top)        1.000 (bottom)
 Mach =   0.000     Re =     4.100 e 6     Ncrit =   9.000

  alpha     CL        CD       CDp       Cm    Top Xtr Bot Xtr   Cpmin    Chinge    XCp    
 ------- -------- --------- --------- -------- ------- ------- -------- --------- ---------
 -26.500  -1.0267   0.27350   0.27253   0.0959  1.0000  0.0039  -7.3480   0.0000   0.2997
 -26.000  -1.0164   0.26683   0.26585   0.0902  1.0000  0.0042  -7.3407   0.0000   0.2963
 -25.000  -1.0016   0.25122   0.25020   0.0776  1.0000  0.0049  -7.4978   0.0000   0.2872
 -24.500  -0.9991   0.24169   0.24062   0.0705  1.0000  0.0052  -7.7129   0.0000   0.2812
 -24.000  -0.9916   0.23413   0.23306   0.0645  1.0000  0.0057  -7.7124   0.0000   0.2768
 -23.500  -0.9957   0.22292   0.22180   0.0564  1.0000  0.0061  -8.0309   0.0000   0.2693
 -23.000  -1.0122   0.20830   0.20709   0.0463  1.0000  0.0064  -8.6024   0.0000   0.2590
 -22.500  -1.2673   0.14094   0.13909   0.0021  1.0000  0.0063  -13.4815   0.0000   0.2143
 -22.000  -1.5305   0.08661   0.08396  -0.0291  1.0000  0.0056  -17.0331   0.0000   0.1952
 -21.500  -1.5987   0.06889   0.06593  -0.0383  1.0000  0.0056  -17.5702   0.0000   0.1919
 -21.000  -1.6364   0.05707   0.05388  -0.0436  1.0000  0.0057  -17.6580   0.0000   0.1908
 -20.500  -1.6573   0.04851   0.04513  -0.0462  1.0000  0.0059  -17.5113   0.0000   0.1911
 -20.000  -1.6670   0.04210   0.03855  -0.0470  1.0000  0.0061  -17.2158   0.0000   0.1921
 -19.500  -1.6688   0.03711   0.03342  -0.0466  1.0000  0.0062  -16.8237   0.0000   0.1937
 -19.000  -1.6635   0.03319   0.02936  -0.0454  1.0000  0.0064  -16.3529   0.0000   0.1957
 -18.500  -1.6525   0.03005   0.02609  -0.0436  1.0000  0.0065  -15.8240   0.0000   0.1978
 -18.000  -1.6427   0.02703   0.02296  -0.0410  1.0000  0.0069  -15.3269   0.0000   0.2003
 -17.500  -1.6289   0.02451   0.02033  -0.0380  1.0000  0.0074  -14.8003   0.0000   0.2031
 -17.000  -1.6092   0.02254   0.01827  -0.0349  1.0000  0.0078  -14.2235   0.0000   0.2058
 -16.500  -1.5846   0.02098   0.01662  -0.0319  1.0000  0.0081  -13.6120   0.0000   0.2083
 -16.000  -1.5605   0.01942   0.01499  -0.0285  1.0000  0.0088  -13.0212   0.0000   0.2112
 -15.500  -1.5331   0.01812   0.01362  -0.0252  1.0000  0.0095  -12.4314   0.0000   0.2140
 -15.000  -1.5017   0.01710   0.01254  -0.0221  1.0000  0.0100  -11.8194   0.0000   0.2167
 -14.500  -1.4726   0.01602   0.01141  -0.0183  1.0000  0.0113  -11.2402   0.0000   0.2198
 -14.000  -1.4426   0.01523   0.01058  -0.0142  1.0000  0.0122  -10.6614   0.0000   0.2233
 -13.500  -1.4141   0.01446   0.00980  -0.0096  1.0000  0.0138  -10.1048   0.0000   0.2271
 -13.000  -1.3848   0.01392   0.00923  -0.0049  0.9999  0.0146  -9.5525   0.0000   0.2312
 -12.500  -1.3311   0.01316   0.00847  -0.0056  0.9987  0.0162  -8.8651   0.0000   0.2314
 -12.000  -1.2748   0.01256   0.00786  -0.0066  0.9974  0.0173  -8.1813   0.0000   0.2312
 -11.500  -1.2175   0.01196   0.00725  -0.0077  0.9962  0.0183  -7.5166   0.0000   0.2308
 -11.000  -1.1592   0.01139   0.00670  -0.0091  0.9954  0.0197  -6.8686   0.0000   0.2300
 -10.500  -1.1019   0.01096   0.00628  -0.0101  0.9931  0.0206  -6.2486   0.0000   0.2294
 -10.000  -1.0454   0.01056   0.00587  -0.0108  0.9896  0.0210  -5.6670   0.0000   0.2288
  -9.500  -0.9935   0.00998   0.00528  -0.0105  0.9841  0.0225  -5.1803   0.0000   0.2292
  -9.000  -0.9435   0.00959   0.00488  -0.0096  0.9770  0.0234  -4.7283   0.0000   0.2302
  -8.500  -0.8935   0.00926   0.00454  -0.0087  0.9692  0.0242  -4.2919   0.0000   0.2313
  -8.000  -0.8421   0.00895   0.00422  -0.0080  0.9610  0.0246  -3.8807   0.0000   0.2320
  -7.500  -0.7911   0.00854   0.00378  -0.0073  0.9521  0.0259  -3.5149   0.0000   0.2329
  -7.000  -0.7389   0.00819   0.00342  -0.0067  0.9433  0.0274  -3.1919   0.0000   0.2334
  -6.500  -0.6860   0.00789   0.00310  -0.0063  0.9334  0.0283  -2.9113   0.0000   0.2338
  -6.000  -0.6322   0.00763   0.00282  -0.0060  0.9230  0.0289  -2.6373   0.0000   0.2338
  -5.500  -0.5783   0.00735   0.00252  -0.0058  0.9122  0.0305  -2.3758   0.0000   0.2337
  -5.000  -0.5243   0.00708   0.00225  -0.0055  0.8997  0.0330  -2.1209   0.0000   0.2335
  -4.500  -0.4700   0.00683   0.00201  -0.0053  0.8870  0.0380  -1.8746   0.0000   0.2330
  -4.000  -0.4167   0.00649   0.00175  -0.0049  0.8735  0.0592  -1.6415   0.0000   0.2327
  -3.500  -0.3624   0.00623   0.00155  -0.0047  0.8591  0.0784  -1.4278   0.0000   0.2317
  -3.000  -0.3078   0.00599   0.00138  -0.0046  0.8444  0.1018  -1.2214   0.0000   0.2301
  -2.500  -0.2542   0.00567   0.00120  -0.0043  0.8269  0.1483  -1.0358   0.0000   0.2284
  -2.000  -0.2009   0.00542   0.00105  -0.0039  0.8007  0.1987  -0.8608   0.0000   0.2260
  -1.500  -0.1500   0.00504   0.00089  -0.0030  0.7658  0.2935  -0.6971   0.0000   0.2251
  -1.000  -0.1010   0.00452   0.00073  -0.0019  0.7317  0.4329  -0.5434   0.0000   0.2268
  -0.500  -0.0502   0.00422   0.00064  -0.0010  0.6903  0.5352  -0.4238   0.0000   0.2251
   0.000  -0.0000   0.00425   0.00063   0.0000  0.6069  0.6069  -0.3386   0.0000   0.4713
   0.500   0.0502   0.00422   0.00064   0.0010  0.5352  0.6903  -0.4238   0.0000   0.2251
   1.000   0.1010   0.00452   0.00073   0.0019  0.4329  0.7317  -0.5434   0.0000   0.2268
   1.500   0.1500   0.00504   0.00089   0.0030  0.2935  0.7658  -0.6972   0.0000   0.2251
   2.000   0.2009   0.00542   0.00105   0.0039  0.1987  0.8006  -0.8608   0.0000   0.2261
   2.500   0.2542   0.00567   0.00120   0.0043  0.1483  0.8269  -1.0358   0.0000   0.2284
   3.000   0.3078   0.00599   0.00138   0.0046  0.1018  0.8444  -1.2214   0.0000   0.2301
   3.500   0.3624   0.00623   0.00155   0.0047  0.0784  0.8591  -1.4278   0.0000   0.2318
   4.000   0.4167   0.00649   0.00175   0.0049  0.0592  0.8735  -1.6416   0.0000   0.2328
   4.500   0.4700   0.00683   0.00201   0.0053  0.0380  0.8870  -1.8747   0.0000   0.2330
   5.000   0.5243   0.00708   0.00225   0.0055  0.0330  0.8997  -2.1211   0.0000   0.2335
   5.500   0.5784   0.00735   0.00252   0.0057  0.0305  0.9122  -2.3760   0.0000   0.2338
   6.000   0.6323   0.00763   0.00282   0.0060  0.0289  0.9230  -2.6375   0.0000   0.2339
   6.500   0.6861   0.00789   0.00310   0.0063  0.0283  0.9334  -2.9116   0.0000   0.2338
   7.000   0.7390   0.00819   0.00342   0.0067  0.0274  0.9433  -3.1921   0.0000   0.2335
   7.500   0.7912   0.00854   0.00378   0.0072  0.0259  0.9521  -3.5153   0.0000   0.2329
   8.000   0.8423   0.00895   0.00422   0.0080  0.0246  0.9609  -3.8812   0.0000   0.2321
   8.500   0.8937   0.00926   0.00454   0.0086  0.0242  0.9691  -4.2925   0.0000   0.2313
   9.000   0.9437   0.00959   0.00488   0.0096  0.0234  0.9770  -4.7290   0.0000   0.2303
   9.500   0.9937   0.00998   0.00528   0.0105  0.0224  0.9841  -5.1811   0.0000   0.2293
  10.000   1.0455   0.01056   0.00587   0.0108  0.0210  0.9896  -5.6677   0.0000   0.2289
  10.500   1.1021   0.01096   0.00627   0.0101  0.0206  0.9931  -6.2495   0.0000   0.2294
  11.000   1.1594   0.01139   0.00670   0.0091  0.0197  0.9954  -6.8698   0.0000   0.2300
  11.500   1.2178   0.01196   0.00725   0.0077  0.0183  0.9962  -7.5179   0.0000   0.2308
  12.000   1.2751   0.01256   0.00786   0.0065  0.0173  0.9974  -8.1828   0.0000   0.2313
  12.500   1.3314   0.01316   0.00847   0.0055  0.0162  0.9987  -8.8668   0.0000   0.2315
  13.000   1.3851   0.01392   0.00922   0.0049  0.0146  0.9999  -9.5545   0.0000   0.2313
  13.500   1.4141   0.01446   0.00980   0.0096  0.0138  1.0000  -10.1050   0.0000   0.2272
  14.000   1.4430   0.01522   0.01058   0.0141  0.0122  1.0000  -10.6640   0.0000   0.2233
  14.500   1.4732   0.01602   0.01141   0.0182  0.0113  1.0000  -11.2445   0.0000   0.2199
  15.000   1.5024   0.01710   0.01254   0.0219  0.0100  1.0000  -11.8245   0.0000   0.2168
  15.500   1.5340   0.01812   0.01362   0.0250  0.0095  1.0000  -12.4375   0.0000   0.2141
  16.000   1.5615   0.01942   0.01499   0.0283  0.0088  1.0000  -13.0283   0.0000   0.2113
  16.500   1.5857   0.02097   0.01662   0.0317  0.0081  1.0000  -13.6209   0.0000   0.2085
  17.000   1.6104   0.02253   0.01826   0.0347  0.0078  1.0000  -14.2335   0.0000   0.2059
  17.500   1.6303   0.02450   0.02032   0.0377  0.0074  1.0000  -14.8115   0.0000   0.2032
  18.000   1.6442   0.02702   0.02294   0.0407  0.0069  1.0000  -15.3392   0.0000   0.2005
  18.500   1.6544   0.03001   0.02606   0.0433  0.0065  1.0000  -15.8403   0.0000   0.1980
  19.000   1.6656   0.03315   0.02932   0.0451  0.0064  1.0000  -16.3716   0.0000   0.1959
  19.500   1.6710   0.03706   0.03336   0.0463  0.0062  1.0000  -16.8441   0.0000   0.1940
  20.000   1.6694   0.04202   0.03847   0.0467  0.0060  1.0000  -17.2388   0.0000   0.1924
  20.500   1.6600   0.04842   0.04503   0.0459  0.0059  1.0000  -17.5366   0.0000   0.1913
  21.000   1.6393   0.05696   0.05376   0.0432  0.0057  1.0000  -17.6863   0.0000   0.1911
  21.500   1.6018   0.06876   0.06579   0.0380  0.0056  1.0000  -17.6009   0.0000   0.1921
  22.000   1.5340   0.08643   0.08378   0.0287  0.0056  1.0000  -17.0688   0.0000   0.1955
  22.500   1.3155   0.13220   0.13023   0.0028  0.0061  1.0000  -14.2235   0.0000   0.2104
  23.000   1.0136   0.20882   0.20762  -0.0468  0.0064  1.0000  -8.6055   0.0000   0.2594
  23.500   0.9973   0.22352   0.22240  -0.0569  0.0061  1.0000  -8.0368   0.0000   0.2697
  24.000   0.9933   0.23485   0.23377  -0.0650  0.0057  1.0000  -7.7187   0.0000   0.2772
  24.500   1.0010   0.24244   0.24136  -0.0709  0.0052  1.0000  -7.7235   0.0000   0.2815
  25.000   1.0034   0.25216   0.25114  -0.0781  0.0049  1.0000  -7.5045   0.0000   0.2876
  25.500   1.0114   0.25987   0.25888  -0.0843  0.0046  1.0000  -7.4627   0.0000   0.2919
  26.000   1.0184   0.26802   0.26704  -0.0907  0.0042  1.0000  -7.3505   0.0000   0.2966
  26.500   1.0287   0.27481   0.27385  -0.0965  0.0039  1.0000  -7.3509   0.0000   0.3001


