xflr5 v6.33

 Calculated polar for: NACA 0012-64

 1 1 Reynolds number fixed          Mach number fixed         

 xtrf =   1.000 (top)        1.000 (bottom)
 Mach =   0.000     Re =     4.900 e 6     Ncrit =   9.000

  alpha     CL        CD       CDp       Cm    Top Xtr Bot Xtr   Cpmin    Chinge    XCp    
 ------- -------- --------- --------- -------- ------- ------- -------- --------- ---------
 -27.000  -1.0351   0.28121   0.28034   0.1023  1.0000  0.0035  -7.2572   0.0000   0.3040
 -26.500  -1.0296   0.27244   0.27154   0.0954  1.0000  0.0038  -7.5022   0.0000   0.2988
 -26.000  -1.0207   0.26523   0.26429   0.0894  1.0000  0.0039  -7.5398   0.0000   0.2949
 -25.500  -1.0129   0.25758   0.25663   0.0831  1.0000  0.0044  -7.6111   0.0000   0.2905
 -25.000  -1.0041   0.25044   0.24948   0.0772  1.0000  0.0047  -7.6033   0.0000   0.2865
 -24.500  -1.0012   0.24111   0.24010   0.0702  1.0000  0.0050  -7.7891   0.0000   0.2807
 -24.000  -0.9940   0.23351   0.23247   0.0641  1.0000  0.0052  -7.7924   0.0000   0.2763
 -23.500  -1.0022   0.22098   0.21991   0.0553  1.0000  0.0058  -8.2226   0.0000   0.2676
 -23.000  -1.0477   0.19851   0.19730   0.0401  1.0000  0.0062  -9.4613   0.0000   0.2509
 -22.500  -1.4730   0.10357   0.10121  -0.0197  1.0000  0.0051  -16.5680   0.0000   0.1993
 -22.000  -1.5929   0.07665   0.07386  -0.0344  1.0000  0.0051  -17.8650   0.0000   0.1928
 -21.500  -1.6403   0.06291   0.05987  -0.0411  1.0000  0.0051  -18.0968   0.0000   0.1910
 -21.000  -1.6649   0.05340   0.05015  -0.0448  1.0000  0.0051  -18.0055   0.0000   0.1907
 -20.500  -1.6832   0.04555   0.04212  -0.0467  1.0000  0.0053  -17.8174   0.0000   0.1913
 -20.000  -1.6931   0.03940   0.03581  -0.0469  1.0000  0.0056  -17.5162   0.0000   0.1927
 -19.500  -1.6951   0.03466   0.03094  -0.0459  1.0000  0.0058  -17.1161   0.0000   0.1947
 -19.000  -1.6897   0.03096   0.02711  -0.0442  1.0000  0.0061  -16.6352   0.0000   0.1968
 -18.500  -1.6781   0.02802   0.02407  -0.0420  1.0000  0.0063  -16.0929   0.0000   0.1991
 -18.000  -1.6613   0.02565   0.02160  -0.0395  1.0000  0.0064  -15.5114   0.0000   0.2015
 -17.500  -1.6422   0.02359   0.01944  -0.0367  1.0000  0.0067  -14.9289   0.0000   0.2040
 -17.000  -1.6240   0.02157   0.01733  -0.0333  1.0000  0.0073  -14.3649   0.0000   0.2069
 -16.500  -1.6005   0.01998   0.01567  -0.0300  1.0000  0.0077  -13.7595   0.0000   0.2097
 -16.000  -1.5724   0.01872   0.01434  -0.0270  1.0000  0.0081  -13.1269   0.0000   0.2123
 -15.500  -1.5445   0.01746   0.01302  -0.0235  1.0000  0.0089  -12.5322   0.0000   0.2152
 -15.000  -1.5144   0.01639   0.01190  -0.0201  1.0000  0.0096  -11.9281   0.0000   0.2181
 -14.500  -1.4826   0.01554   0.01100  -0.0166  1.0000  0.0102  -11.3223   0.0000   0.2211
 -14.000  -1.4540   0.01467   0.01010  -0.0122  1.0000  0.0115  -10.7523   0.0000   0.2247
 -13.500  -1.4265   0.01402   0.00942  -0.0073  1.0000  0.0126  -10.1985   0.0000   0.2288
 -13.000  -1.3827   0.01327   0.00867  -0.0058  0.9993  0.0143  -9.5531   0.0000   0.2306
 -12.500  -1.3282   0.01260   0.00799  -0.0065  0.9980  0.0154  -8.8593   0.0000   0.2307
 -12.000  -1.2724   0.01196   0.00736  -0.0075  0.9968  0.0169  -8.1791   0.0000   0.2305
 -11.500  -1.2145   0.01145   0.00685  -0.0087  0.9958  0.0176  -7.5084   0.0000   0.2300
 -11.000  -1.1578   0.01086   0.00627  -0.0097  0.9943  0.0190  -6.8717   0.0000   0.2295
 -10.500  -1.1036   0.01041   0.00583  -0.0100  0.9902  0.0201  -6.2686   0.0000   0.2295
 -10.000  -1.0497   0.01004   0.00546  -0.0100  0.9854  0.0208  -5.6960   0.0000   0.2296
  -9.500  -1.0007   0.00964   0.00503  -0.0090  0.9779  0.0214  -5.2157   0.0000   0.2309
  -9.000  -0.9519   0.00920   0.00459  -0.0078  0.9699  0.0227  -4.7696   0.0000   0.2322
  -8.500  -0.9008   0.00886   0.00424  -0.0071  0.9620  0.0236  -4.3274   0.0000   0.2331
  -8.000  -0.8486   0.00856   0.00393  -0.0066  0.9536  0.0244  -3.9103   0.0000   0.2337
  -7.500  -0.7958   0.00829   0.00365  -0.0062  0.9448  0.0247  -3.5321   0.0000   0.2342
  -7.000  -0.7436   0.00792   0.00324  -0.0057  0.9349  0.0264  -3.2126   0.0000   0.2349
  -6.500  -0.6901   0.00761   0.00293  -0.0054  0.9250  0.0275  -2.9301   0.0000   0.2352
  -6.000  -0.6360   0.00735   0.00266  -0.0052  0.9147  0.0285  -2.6537   0.0000   0.2352
  -5.500  -0.5815   0.00713   0.00242  -0.0051  0.9026  0.0290  -2.3852   0.0000   0.2350
  -5.000  -0.5272   0.00688   0.00216  -0.0049  0.8896  0.0316  -2.1308   0.0000   0.2348
  -4.500  -0.4724   0.00666   0.00193  -0.0048  0.8767  0.0346  -1.8818   0.0000   0.2342
  -4.000  -0.4186   0.00635   0.00169  -0.0045  0.8623  0.0503  -1.6461   0.0000   0.2339
  -3.500  -0.3644   0.00609   0.00149  -0.0043  0.8472  0.0709  -1.4322   0.0000   0.2331
  -3.000  -0.3095   0.00587   0.00133  -0.0042  0.8316  0.0908  -1.2249   0.0000   0.2314
  -2.500  -0.2556   0.00561   0.00116  -0.0039  0.8108  0.1288  -1.0383   0.0000   0.2298
  -2.000  -0.2022   0.00538   0.00102  -0.0035  0.7799  0.1767  -0.8630   0.0000   0.2278
  -1.500  -0.1496   0.00514   0.00090  -0.0030  0.7424  0.2416  -0.6964   0.0000   0.2252
  -1.000  -0.1000   0.00468   0.00074  -0.0020  0.7035  0.3727  -0.5419   0.0000   0.2255
  -0.500  -0.0496   0.00439   0.00065  -0.0011  0.6558  0.4810  -0.4232   0.0000   0.2234
   0.000   0.0000   0.00446   0.00065  -0.0000  0.5556  0.5556  -0.3385   0.0000   0.4429
   0.500   0.0496   0.00439   0.00065   0.0011  0.4810  0.6558  -0.4232   0.0000   0.2234
   1.000   0.1000   0.00468   0.00074   0.0020  0.3727  0.7035  -0.5419   0.0000   0.2255
   1.500   0.1496   0.00514   0.00090   0.0030  0.2416  0.7424  -0.6964   0.0000   0.2252
   2.000   0.2022   0.00538   0.00102   0.0035  0.1767  0.7799  -0.8630   0.0000   0.2278
   2.500   0.2556   0.00561   0.00116   0.0039  0.1288  0.8108  -1.0383   0.0000   0.2298
   3.000   0.3095   0.00587   0.00133   0.0042  0.0908  0.8316  -1.2249   0.0000   0.2315
   4.000   0.4186   0.00635   0.00169   0.0045  0.0503  0.8623  -1.6461   0.0000   0.2339
   4.500   0.4725   0.00666   0.00193   0.0048  0.0346  0.8767  -1.8819   0.0000   0.2343
   5.000   0.5273   0.00688   0.00216   0.0049  0.0316  0.8896  -2.1310   0.0000   0.2348
   5.500   0.5816   0.00713   0.00242   0.0051  0.0290  0.9026  -2.3854   0.0000   0.2350
   6.000   0.6361   0.00735   0.00266   0.0052  0.0285  0.9146  -2.6539   0.0000   0.2352
   6.500   0.6902   0.00761   0.00293   0.0054  0.0275  0.9250  -2.9303   0.0000   0.2352
   7.000   0.7437   0.00792   0.00324   0.0057  0.0264  0.9349  -3.2129   0.0000   0.2349
   7.500   0.7959   0.00829   0.00365   0.0062  0.0247  0.9448  -3.5324   0.0000   0.2342
   8.000   0.8488   0.00856   0.00393   0.0066  0.0244  0.9536  -3.9107   0.0000   0.2338
   8.500   0.9009   0.00886   0.00424   0.0071  0.0236  0.9620  -4.3280   0.0000   0.2331
   9.000   0.9521   0.00920   0.00459   0.0078  0.0227  0.9699  -4.7703   0.0000   0.2323
   9.500   1.0009   0.00964   0.00503   0.0089  0.0214  0.9779  -5.2165   0.0000   0.2309
  10.000   1.0499   0.01004   0.00546   0.0100  0.0208  0.9854  -5.6970   0.0000   0.2297
  10.500   1.1038   0.01041   0.00583   0.0099  0.0201  0.9902  -6.2696   0.0000   0.2296
  11.000   1.1580   0.01086   0.00626   0.0096  0.0190  0.9943  -6.8728   0.0000   0.2295
  11.500   1.2147   0.01145   0.00685   0.0087  0.0176  0.9958  -7.5097   0.0000   0.2300
  12.000   1.2726   0.01196   0.00736   0.0074  0.0169  0.9968  -8.1805   0.0000   0.2306
  12.500   1.3284   0.01260   0.00799   0.0065  0.0154  0.9980  -8.8609   0.0000   0.2307
  13.000   1.3830   0.01327   0.00867   0.0058  0.0142  0.9993  -9.5550   0.0000   0.2306
  13.500   1.4264   0.01401   0.00942   0.0073  0.0126  1.0000  -10.1979   0.0000   0.2288
  14.000   1.4542   0.01467   0.01010   0.0122  0.0115  1.0000  -10.7537   0.0000   0.2247
  14.500   1.4832   0.01554   0.01100   0.0165  0.0102  1.0000  -11.3264   0.0000   0.2211
  15.000   1.5152   0.01639   0.01190   0.0200  0.0096  1.0000  -11.9332   0.0000   0.2182
  15.500   1.5453   0.01746   0.01302   0.0234  0.0089  1.0000  -12.5380   0.0000   0.2153
  16.000   1.5733   0.01872   0.01434   0.0268  0.0081  1.0000  -13.1341   0.0000   0.2124
  16.500   1.6016   0.01997   0.01566   0.0298  0.0077  1.0000  -13.7680   0.0000   0.2099
  17.000   1.6252   0.02157   0.01733   0.0331  0.0073  1.0000  -14.3745   0.0000   0.2071
  17.500   1.6435   0.02358   0.01943   0.0365  0.0067  1.0000  -14.9396   0.0000   0.2042
  18.000   1.6629   0.02563   0.02158   0.0393  0.0064  1.0000  -15.5248   0.0000   0.2017
  18.500   1.6798   0.02799   0.02404   0.0417  0.0063  1.0000  -16.1083   0.0000   0.1993
  19.000   1.6915   0.03092   0.02708   0.0439  0.0061  1.0000  -16.6524   0.0000   0.1970
  19.500   1.6971   0.03462   0.03089   0.0456  0.0058  1.0000  -17.1354   0.0000   0.1949
  20.000   1.6954   0.03935   0.03576   0.0466  0.0056  1.0000  -17.5373   0.0000   0.1930
  20.500   1.6856   0.04548   0.04205   0.0463  0.0053  1.0000  -17.8405   0.0000   0.1916
  21.000   1.6680   0.05325   0.05000   0.0445  0.0051  1.0000  -18.0371   0.0000   0.1909
  21.500   1.6439   0.06270   0.05965   0.0408  0.0051  1.0000  -18.1344   0.0000   0.1912
  22.000   1.5972   0.07634   0.07355   0.0342  0.0051  1.0000  -17.9117   0.0000   0.1930
  22.500   1.4795   0.10290   0.10052   0.0197  0.0051  1.0000  -16.6463   0.0000   0.1993
  23.000   1.0491   0.19898   0.19776  -0.0405  0.0062  1.0000  -9.4646   0.0000   0.2513
  23.500   1.0037   0.22161   0.22054  -0.0558  0.0058  1.0000  -8.2252   0.0000   0.2680
  24.000   0.9958   0.23420   0.23317  -0.0646  0.0052  1.0000  -7.8008   0.0000   0.2766
  24.500   1.0029   0.24195   0.24094  -0.0706  0.0050  1.0000  -7.7951   0.0000   0.2810
  25.000   1.0059   0.25133   0.25037  -0.0777  0.0047  1.0000  -7.6111   0.0000   0.2869
  25.500   1.0148   0.25864   0.25768  -0.0836  0.0044  1.0000  -7.6174   0.0000   0.2908
  26.000   1.0225   0.26647   0.26553  -0.0899  0.0039  1.0000  -7.5433   0.0000   0.2952
  26.500   1.0315   0.27371   0.27281  -0.0960  0.0038  1.0000  -7.5091   0.0000   0.2991
  27.000   1.0372   0.28270   0.28183  -0.1029  0.0035  1.0000  -7.2655   0.0000   0.3043
  27.500   1.0477   0.28926   0.28840  -0.1087  0.0033  1.0000  -7.2652   0.0000   0.3076


