xflr5 v6.33

 Calculated polar for: NACA 0012 v1

 1 1 Reynolds number fixed          Mach number fixed         

 xtrf =   1.000 (top)        1.000 (bottom)
 Mach =   0.000     Re =     1.700 e 6     Ncrit =   9.000

  alpha     CL        CD       CDp       Cm    Top Xtr Bot Xtr   Cpmin    Chinge    XCp    
 ------- -------- --------- --------- -------- ------- ------- -------- --------- ---------
 -23.000  -1.1178   0.20125   0.19954   0.0670  1.0000  0.0098  -8.7293   0.0000   0.2730
 -22.500  -1.1337   0.18863   0.18677   0.0572  1.0000  0.0100  -9.1085   0.0000   0.2643
 -22.000  -1.1482   0.17670   0.17470   0.0481  1.0000  0.0102  -9.3836   0.0000   0.2568
 -21.500  -1.1635   0.16503   0.16291   0.0395  1.0000  0.0103  -9.6095   0.0000   0.2498
 -21.000  -1.1870   0.15193   0.14970   0.0302  1.0000  0.0106  -9.9008   0.0000   0.2424
 -20.500  -1.2243   0.13643   0.13404   0.0200  1.0000  0.0107  -10.3140   0.0000   0.2342
 -20.000  -1.2788   0.11829   0.11568   0.0089  1.0000  0.0107  -10.8575   0.0000   0.2259
 -19.500  -1.3484   0.09837   0.09547  -0.0021  1.0000  0.0106  -11.4740   0.0000   0.2185
 -19.000  -1.4172   0.07952   0.07632  -0.0119  1.0000  0.0106  -11.9925   0.0000   0.2130
 -18.500  -1.4721   0.06373   0.06024  -0.0199  1.0000  0.0106  -12.3064   0.0000   0.2091
 -18.000  -1.5081   0.05157   0.04781  -0.0258  1.0000  0.0107  -12.3948   0.0000   0.2069
 -17.500  -1.5253   0.04282   0.03884  -0.0294  1.0000  0.0109  -12.2809   0.0000   0.2060
 -17.000  -1.5287   0.03660   0.03244  -0.0310  1.0000  0.0111  -12.0374   0.0000   0.2062
 -16.500  -1.5232   0.03206   0.02773  -0.0310  1.0000  0.0114  -11.7108   0.0000   0.2073
 -16.000  -1.5119   0.02863   0.02414  -0.0297  1.0000  0.0117  -11.3337   0.0000   0.2091
 -15.500  -1.4948   0.02608   0.02145  -0.0276  1.0000  0.0120  -10.9129   0.0000   0.2113
 -15.000  -1.4793   0.02373   0.01895  -0.0243  1.0000  0.0124  -10.5088   0.0000   0.2143
 -14.500  -1.4602   0.02185   0.01697  -0.0205  1.0000  0.0129  -10.0782   0.0000   0.2177
 -14.000  -1.4337   0.02053   0.01555  -0.0167  1.0000  0.0135  -9.6021   0.0000   0.2209
 -13.500  -1.3981   0.01938   0.01430  -0.0143  1.0000  0.0140  -9.0819   0.0000   0.2232
 -13.000  -1.3620   0.01808   0.01291  -0.0120  1.0000  0.0147  -8.5761   0.0000   0.2255
 -12.500  -1.3213   0.01704   0.01181  -0.0101  1.0000  0.0156  -8.0494   0.0000   0.2274
 -12.000  -1.2772   0.01621   0.01091  -0.0086  1.0000  0.0164  -7.5366   0.0000   0.2291
 -11.500  -1.2346   0.01518   0.00984  -0.0069  1.0000  0.0176  -7.0522   0.0000   0.2310
 -11.000  -1.1886   0.01446   0.00906  -0.0055  1.0000  0.0187  -6.5606   0.0000   0.2327
 -10.500  -1.1442   0.01361   0.00819  -0.0038  1.0000  0.0202  -6.0930   0.0000   0.2347
 -10.000  -1.0991   0.01295   0.00749  -0.0020  1.0000  0.0218  -5.6336   0.0000   0.2369
  -9.500  -1.0551   0.01233   0.00685   0.0001  1.0000  0.0238  -5.2066   0.0000   0.2394
  -9.000  -1.0123   0.01172   0.00623   0.0025  1.0000  0.0261  -4.8051   0.0000   0.2424
  -8.500  -0.9701   0.01117   0.00568   0.0050  1.0000  0.0289  -4.4172   0.0000   0.2457
  -8.000  -0.9240   0.01066   0.00517   0.0068  0.9997  0.0325  -4.0310   0.0000   0.2484
  -7.500  -0.8582   0.01009   0.00463   0.0043  0.9975  0.0379  -3.6060   0.0000   0.2466
  -7.000  -0.7915   0.00955   0.00414   0.0017  0.9953  0.0454  -3.1958   0.0000   0.2442
  -6.500  -0.7246   0.00902   0.00368  -0.0010  0.9928  0.0561  -2.8219   0.0000   0.2412
  -6.000  -0.6580   0.00850   0.00325  -0.0036  0.9894  0.0715  -2.4715   0.0000   0.2375
  -5.500  -0.5956   0.00799   0.00286  -0.0051  0.9826  0.0925  -2.1590   0.0000   0.2347
  -5.000  -0.5386   0.00750   0.00251  -0.0054  0.9710  0.1203  -1.8870   0.0000   0.2336
  -4.500  -0.4857   0.00705   0.00219  -0.0047  0.9541  0.1552  -1.6458   0.0000   0.2343
  -4.000  -0.4337   0.00662   0.00190  -0.0037  0.9325  0.1969  -1.4279   0.0000   0.2357
  -3.500  -0.3811   0.00625   0.00165  -0.0029  0.9060  0.2439  -1.2308   0.0000   0.2369
  -3.000  -0.3278   0.00593   0.00143  -0.0022  0.8741  0.2941  -1.0546   0.0000   0.2379
  -2.500  -0.2740   0.00569   0.00126  -0.0017  0.8370  0.3457  -0.8994   0.0000   0.2388
  -2.000  -0.2197   0.00550   0.00112  -0.0012  0.7954  0.3977  -0.7655   0.0000   0.2396
  -1.500  -0.1651   0.00537   0.00101  -0.0008  0.7501  0.4499  -0.6521   0.0000   0.2402
  -1.000  -0.1103   0.00527   0.00094  -0.0005  0.7024  0.5014  -0.5576   0.0000   0.2406
  -0.500  -0.0552   0.00522   0.00090  -0.0002  0.6533  0.5527  -0.4793   0.0000   0.2409
   0.000  -0.0000   0.00520   0.00088  -0.0000  0.6033  0.6033  -0.4134   0.0000   0.4543
   0.500   0.0552   0.00522   0.00090   0.0002  0.5526  0.6533  -0.4793   0.0000   0.2409
   1.000   0.1103   0.00527   0.00094   0.0005  0.5014  0.7024  -0.5576   0.0000   0.2407
   1.500   0.1651   0.00537   0.00101   0.0008  0.4499  0.7501  -0.6521   0.0000   0.2402
   2.000   0.2197   0.00550   0.00112   0.0012  0.3977  0.7954  -0.7655   0.0000   0.2396
   2.500   0.2740   0.00569   0.00126   0.0017  0.3457  0.8370  -0.8995   0.0000   0.2388
   3.000   0.3279   0.00593   0.00143   0.0023  0.2941  0.8741  -1.0546   0.0000   0.2380
   3.500   0.3811   0.00625   0.00165   0.0029  0.2438  0.9060  -1.2309   0.0000   0.2369
   4.000   0.4337   0.00662   0.00190   0.0038  0.1969  0.9325  -1.4279   0.0000   0.2357
   4.500   0.4857   0.00705   0.00219   0.0048  0.1552  0.9541  -1.6459   0.0000   0.2343
   5.000   0.5386   0.00750   0.00251   0.0055  0.1203  0.9710  -1.8870   0.0000   0.2336
   5.500   0.5956   0.00799   0.00286   0.0052  0.0925  0.9826  -2.1591   0.0000   0.2347
   6.000   0.6580   0.00850   0.00325   0.0037  0.0715  0.9894  -2.4715   0.0000   0.2375
   6.500   0.7246   0.00902   0.00368   0.0012  0.0561  0.9928  -2.8220   0.0000   0.2412
   7.000   0.7916   0.00955   0.00414  -0.0014  0.0454  0.9953  -3.1959   0.0000   0.2442
   7.500   0.8582   0.01009   0.00463  -0.0040  0.0379  0.9975  -3.6061   0.0000   0.2466
   8.000   0.9240   0.01066   0.00517  -0.0065  0.0325  0.9997  -4.0312   0.0000   0.2484
   8.500   0.9700   0.01117   0.00568  -0.0047  0.0289  1.0000  -4.4168   0.0000   0.2457
   9.000   1.0123   0.01172   0.00623  -0.0021  0.0261  1.0000  -4.8048   0.0000   0.2424
   9.500   1.0551   0.01233   0.00685   0.0004  0.0238  1.0000  -5.2064   0.0000   0.2394
  10.000   1.0991   0.01295   0.00749   0.0025  0.0218  1.0000  -5.6336   0.0000   0.2369
  10.500   1.1442   0.01361   0.00819   0.0043  0.0202  1.0000  -6.0931   0.0000   0.2347
  11.000   1.1887   0.01446   0.00906   0.0060  0.0187  1.0000  -6.5609   0.0000   0.2327
  11.500   1.2347   0.01518   0.00984   0.0074  0.0176  1.0000  -7.0527   0.0000   0.2310
  12.000   1.2774   0.01621   0.01091   0.0092  0.0164  1.0000  -7.5374   0.0000   0.2291
  12.500   1.3215   0.01704   0.01181   0.0108  0.0156  1.0000  -8.0504   0.0000   0.2274
  13.000   1.3622   0.01809   0.01292   0.0127  0.0147  1.0000  -8.5773   0.0000   0.2255
  13.500   1.3984   0.01938   0.01430   0.0151  0.0140  1.0000  -9.0836   0.0000   0.2232
  14.000   1.4341   0.02053   0.01555   0.0175  0.0135  1.0000  -9.6044   0.0000   0.2209
  14.500   1.4607   0.02185   0.01697   0.0213  0.0129  1.0000  -10.0813   0.0000   0.2177
  15.000   1.4799   0.02373   0.01895   0.0252  0.0124  1.0000  -10.5121   0.0000   0.2144
  15.500   1.4956   0.02607   0.02144   0.0285  0.0120  1.0000  -10.9179   0.0000   0.2114
  16.000   1.5128   0.02862   0.02413   0.0306  0.0117  1.0000  -11.3396   0.0000   0.2092
  16.500   1.5243   0.03204   0.02771   0.0319  0.0114  1.0000  -11.7178   0.0000   0.2074
  17.000   1.5299   0.03657   0.03240   0.0319  0.0111  1.0000  -12.0457   0.0000   0.2063
  17.500   1.5267   0.04278   0.03880   0.0304  0.0109  1.0000  -12.2904   0.0000   0.2061
  18.000   1.5095   0.05153   0.04777   0.0267  0.0107  1.0000  -12.4055   0.0000   0.2070
  18.500   1.4735   0.06371   0.06021   0.0207  0.0106  1.0000  -12.3168   0.0000   0.2093
  19.000   1.4187   0.07950   0.07629   0.0127  0.0105  1.0000  -12.0026   0.0000   0.2131
  19.500   1.3499   0.09835   0.09546   0.0028  0.0106  1.0000  -11.4842   0.0000   0.2187
  20.000   1.2802   0.11830   0.11569  -0.0083  0.0107  1.0000  -10.8669   0.0000   0.2261
  20.500   1.2255   0.13649   0.13410  -0.0194  0.0107  1.0000  -10.3215   0.0000   0.2344
  21.000   1.1882   0.15203   0.14980  -0.0297  0.0106  1.0000  -9.9073   0.0000   0.2426
  21.500   1.1647   0.16512   0.16301  -0.0391  0.0103  1.0000  -9.6160   0.0000   0.2500
  22.000   1.1493   0.17685   0.17486  -0.0477  0.0102  1.0000  -9.3890   0.0000   0.2569
  22.500   1.1348   0.18884   0.18699  -0.0568  0.0100  1.0000  -9.1130   0.0000   0.2645
  23.000   1.1188   0.20160   0.19990  -0.0667  0.0098  1.0000  -8.7325   0.0000   0.2733
  28.500   1.1232   0.32813   0.32683  -0.1589  0.0036  1.0000  -2.3866   0.0000   0.3498
  29.000   1.1370   0.33259   0.33130  -0.1640  0.0033  1.0000  -2.4443   0.0000   0.3512
  29.500   1.1503   0.33667   0.33539  -0.1691  0.0032  1.0000  -2.5516   0.0000   0.3524
  30.000   1.1629   0.34034   0.33907  -0.1742  0.0031  1.0000  -2.6927   0.0000   0.3535
  30.500   1.1751   0.34456   0.34330  -0.1793  0.0031  1.0000  -2.7540   0.0000   0.3547
  31.000   1.1902   0.35261   0.35135  -0.1855  0.0025  1.0000  -2.5475   0.0000   0.3571
  31.500   1.2024   0.35677   0.35552  -0.1909  0.0023  1.0000  -2.6191   0.0000   0.3583
  32.000   1.2140   0.36058   0.35934  -0.1962  0.0022  1.0000  -2.6877   0.0000   0.3594
  32.500   1.2249   0.36400   0.36277  -0.2015  0.0022  1.0000  -2.7538   0.0000   0.3605
  33.000   1.2353   0.36773   0.36651  -0.2068  0.0021  1.0000  -2.8252   0.0000   0.3615


