xflr5 v6.33

 Calculated polar for: NACA 0012-64

 1 1 Reynolds number fixed          Mach number fixed         

 xtrf =   1.000 (top)        1.000 (bottom)
 Mach =   0.000     Re =     4.500 e 6     Ncrit =   9.000

  alpha     CL        CD       CDp       Cm    Top Xtr Bot Xtr   Cpmin    Chinge    XCp    
 ------- -------- --------- --------- -------- ------- ------- -------- --------- ---------
 -26.500  -1.0283   0.27285   0.27191   0.0956  1.0000  0.0039  -7.4354   0.0000   0.2992
 -26.000  -1.0189   0.26588   0.26492   0.0897  1.0000  0.0041  -7.4581   0.0000   0.2954
 -25.500  -1.0116   0.25804   0.25706   0.0833  1.0000  0.0045  -7.5523   0.0000   0.2909
 -25.000  -1.0029   0.25081   0.24983   0.0774  1.0000  0.0048  -7.5535   0.0000   0.2869
 -24.500  -1.0003   0.24137   0.24033   0.0703  1.0000  0.0051  -7.7563   0.0000   0.2809
 -24.000  -0.9926   0.23383   0.23278   0.0643  1.0000  0.0055  -7.7485   0.0000   0.2766
 -23.500  -0.9990   0.22189   0.22080   0.0558  1.0000  0.0060  -8.1302   0.0000   0.2684
 -23.000  -1.0226   0.20538   0.20419   0.0445  1.0000  0.0063  -8.8634   0.0000   0.2566
 -22.500  -1.4325   0.11056   0.10829  -0.0158  1.0000  0.0055  -15.9878   0.0000   0.2016
 -22.000  -1.5547   0.08269   0.07998  -0.0312  1.0000  0.0053  -17.3588   0.0000   0.1942
 -21.500  -1.6161   0.06635   0.06336  -0.0395  1.0000  0.0053  -17.7916   0.0000   0.1915
 -21.000  -1.6521   0.05504   0.05181  -0.0443  1.0000  0.0054  -17.8506   0.0000   0.1907
 -20.500  -1.6725   0.04676   0.04334  -0.0465  1.0000  0.0056  -17.6916   0.0000   0.1912
 -20.000  -1.6821   0.04052   0.03695  -0.0470  1.0000  0.0058  -17.3892   0.0000   0.1925
 -19.500  -1.6836   0.03571   0.03200  -0.0463  1.0000  0.0060  -16.9887   0.0000   0.1942
 -19.000  -1.6780   0.03194   0.02810  -0.0447  1.0000  0.0062  -16.5098   0.0000   0.1963
 -18.500  -1.6666   0.02892   0.02496  -0.0427  1.0000  0.0064  -15.9722   0.0000   0.1985
 -18.000  -1.6501   0.02647   0.02241  -0.0404  1.0000  0.0065  -15.3994   0.0000   0.2008
 -17.500  -1.6363   0.02399   0.01983  -0.0373  1.0000  0.0070  -14.8726   0.0000   0.2036
 -17.000  -1.6175   0.02199   0.01774  -0.0340  1.0000  0.0075  -14.3028   0.0000   0.2064
 -16.500  -1.5933   0.02042   0.01609  -0.0309  1.0000  0.0079  -13.6927   0.0000   0.2091
 -16.000  -1.5661   0.01909   0.01469  -0.0278  1.0000  0.0083  -13.0712   0.0000   0.2117
 -15.500  -1.5395   0.01775   0.01328  -0.0243  1.0000  0.0092  -12.4876   0.0000   0.2147
 -15.000  -1.5086   0.01671   0.01219  -0.0210  1.0000  0.0098  -11.8783   0.0000   0.2174
 -14.500  -1.4780   0.01575   0.01118  -0.0174  1.0000  0.0108  -11.2850   0.0000   0.2205
 -14.000  -1.4489   0.01492   0.01032  -0.0131  1.0000  0.0119  -10.7115   0.0000   0.2241
 -13.500  -1.4207   0.01420   0.00958  -0.0084  1.0000  0.0132  -10.1556   0.0000   0.2281
 -13.000  -1.3836   0.01357   0.00893  -0.0054  0.9996  0.0145  -9.5526   0.0000   0.2308
 -12.500  -1.3296   0.01285   0.00821  -0.0061  0.9983  0.0159  -8.8625   0.0000   0.2310
 -12.000  -1.2735   0.01224   0.00759  -0.0071  0.9970  0.0171  -8.1801   0.0000   0.2308
 -11.500  -1.2157   0.01171   0.00705  -0.0083  0.9960  0.0178  -7.5104   0.0000   0.2303
 -11.000  -1.1576   0.01110   0.00646  -0.0096  0.9952  0.0193  -6.8662   0.0000   0.2296
 -10.500  -1.1023   0.01066   0.00603  -0.0101  0.9918  0.0204  -6.2570   0.0000   0.2294
 -10.000  -1.0463   0.01028   0.00565  -0.0107  0.9880  0.0209  -5.6761   0.0000   0.2290
  -9.500  -0.9975   0.00978   0.00513  -0.0097  0.9808  0.0219  -5.2004   0.0000   0.2301
  -9.000  -0.9481   0.00938   0.00472  -0.0086  0.9732  0.0231  -4.7507   0.0000   0.2313
  -8.500  -0.8973   0.00904   0.00438  -0.0079  0.9656  0.0239  -4.3108   0.0000   0.2322
  -8.000  -0.8458   0.00874   0.00406  -0.0072  0.9571  0.0245  -3.8974   0.0000   0.2330
  -7.500  -0.7936   0.00842   0.00372  -0.0067  0.9481  0.0251  -3.5237   0.0000   0.2336
  -7.000  -0.7414   0.00804   0.00332  -0.0062  0.9390  0.0269  -3.2033   0.0000   0.2342
  -6.500  -0.6881   0.00774   0.00301  -0.0058  0.9293  0.0279  -2.9212   0.0000   0.2345
  -6.000  -0.6342   0.00748   0.00273  -0.0056  0.9190  0.0287  -2.6461   0.0000   0.2345
  -5.500  -0.5800   0.00724   0.00247  -0.0054  0.9074  0.0295  -2.3802   0.0000   0.2344
  -5.000  -0.5259   0.00697   0.00220  -0.0052  0.8946  0.0323  -2.1264   0.0000   0.2342
  -4.500  -0.4713   0.00674   0.00197  -0.0050  0.8818  0.0365  -1.8787   0.0000   0.2337
  -4.000  -0.4175   0.00642   0.00172  -0.0047  0.8681  0.0537  -1.6436   0.0000   0.2333
  -3.500  -0.3633   0.00615   0.00152  -0.0045  0.8533  0.0749  -1.4299   0.0000   0.2323
  -3.000  -0.3087   0.00592   0.00135  -0.0044  0.8375  0.0962  -1.2233   0.0000   0.2308
  -2.500  -0.2549   0.00564   0.00118  -0.0041  0.8191  0.1376  -1.0370   0.0000   0.2291
  -2.000  -0.2015   0.00540   0.00104  -0.0037  0.7903  0.1865  -0.8619   0.0000   0.2269
  -1.500  -0.1497   0.00510   0.00090  -0.0031  0.7538  0.2639  -0.6965   0.0000   0.2250
  -1.000  -0.1004   0.00460   0.00074  -0.0020  0.7176  0.4012  -0.5425   0.0000   0.2259
  -0.500  -0.0498   0.00430   0.00065  -0.0011  0.6737  0.5080  -0.4234   0.0000   0.2240
   0.000  -0.0000   0.00436   0.00063   0.0000  0.5798  0.5798  -0.3385   0.0000   0.4758
   0.500   0.0498   0.00430   0.00065   0.0011  0.5080  0.6737  -0.4234   0.0000   0.2240
   1.000   0.1004   0.00460   0.00074   0.0020  0.4012  0.7176  -0.5425   0.0000   0.2260
   1.500   0.1497   0.00510   0.00090   0.0030  0.2639  0.7538  -0.6965   0.0000   0.2250
   2.000   0.2016   0.00540   0.00104   0.0037  0.1865  0.7903  -0.8619   0.0000   0.2269
   2.500   0.2549   0.00564   0.00118   0.0041  0.1376  0.8191  -1.0371   0.0000   0.2291
   3.000   0.3087   0.00592   0.00135   0.0044  0.0962  0.8375  -1.2233   0.0000   0.2308
   3.500   0.3633   0.00615   0.00152   0.0045  0.0749  0.8533  -1.4299   0.0000   0.2324
   4.000   0.4176   0.00642   0.00172   0.0047  0.0537  0.8681  -1.6437   0.0000   0.2333
   4.500   0.4714   0.00674   0.00197   0.0050  0.0365  0.8818  -1.8788   0.0000   0.2337
   5.000   0.5260   0.00697   0.00220   0.0051  0.0323  0.8946  -2.1266   0.0000   0.2343
   5.500   0.5800   0.00724   0.00247   0.0054  0.0295  0.9074  -2.3804   0.0000   0.2344
   6.000   0.6343   0.00748   0.00273   0.0056  0.0287  0.9190  -2.6463   0.0000   0.2346
   6.500   0.6882   0.00774   0.00301   0.0058  0.0279  0.9293  -2.9214   0.0000   0.2345
   7.000   0.7415   0.00804   0.00332   0.0061  0.0269  0.9390  -3.2036   0.0000   0.2342
   7.500   0.7937   0.00842   0.00372   0.0067  0.0251  0.9481  -3.5241   0.0000   0.2336
   8.000   0.8459   0.00874   0.00406   0.0072  0.0245  0.9571  -3.8978   0.0000   0.2330
   8.500   0.8975   0.00904   0.00438   0.0078  0.0239  0.9656  -4.3114   0.0000   0.2323
   9.000   0.9483   0.00938   0.00472   0.0086  0.0231  0.9732  -4.7515   0.0000   0.2314
   9.500   0.9977   0.00978   0.00513   0.0096  0.0219  0.9807  -5.2012   0.0000   0.2302
  10.000   1.0465   0.01028   0.00565   0.0107  0.0209  0.9880  -5.6769   0.0000   0.2290
  10.500   1.1025   0.01066   0.00603   0.0101  0.0204  0.9918  -6.2579   0.0000   0.2294
  11.000   1.1578   0.01110   0.00646   0.0096  0.0193  0.9952  -6.8673   0.0000   0.2296
  11.500   1.2159   0.01171   0.00705   0.0083  0.0178  0.9960  -7.5116   0.0000   0.2303
  12.000   1.2737   0.01224   0.00759   0.0070  0.0171  0.9970  -8.1815   0.0000   0.2309
  12.500   1.3298   0.01285   0.00821   0.0060  0.0159  0.9983  -8.8641   0.0000   0.2311
  13.000   1.3839   0.01357   0.00893   0.0054  0.0145  0.9996  -9.5545   0.0000   0.2309
  13.500   1.4207   0.01420   0.00958   0.0084  0.0132  1.0000  -10.1553   0.0000   0.2280
  14.000   1.4492   0.01492   0.01031   0.0131  0.0119  1.0000  -10.7132   0.0000   0.2241
  14.500   1.4786   0.01575   0.01118   0.0173  0.0108  1.0000  -11.2892   0.0000   0.2206
  15.000   1.5093   0.01671   0.01219   0.0209  0.0098  1.0000  -11.8835   0.0000   0.2175
  15.500   1.5403   0.01775   0.01328   0.0241  0.0092  1.0000  -12.4936   0.0000   0.2148
  16.000   1.5670   0.01909   0.01468   0.0276  0.0083  1.0000  -13.0781   0.0000   0.2119
  16.500   1.5944   0.02042   0.01609   0.0307  0.0079  1.0000  -13.7013   0.0000   0.2092
  17.000   1.6187   0.02198   0.01773   0.0338  0.0075  1.0000  -14.3126   0.0000   0.2066
  17.500   1.6376   0.02399   0.01982   0.0370  0.0070  1.0000  -14.8834   0.0000   0.2038
  18.000   1.6518   0.02645   0.02239   0.0402  0.0065  1.0000  -15.4132   0.0000   0.2010
  18.500   1.6684   0.02889   0.02493   0.0425  0.0064  1.0000  -15.9880   0.0000   0.1987
  19.000   1.6800   0.03190   0.02806   0.0445  0.0062  1.0000  -16.5275   0.0000   0.1965
  19.500   1.6858   0.03566   0.03195   0.0460  0.0060  1.0000  -17.0085   0.0000   0.1944
  20.000   1.6844   0.04046   0.03688   0.0467  0.0058  1.0000  -17.4114   0.0000   0.1927
  20.500   1.6750   0.04668   0.04326   0.0462  0.0056  1.0000  -17.7156   0.0000   0.1914
  21.000   1.6547   0.05494   0.05171   0.0439  0.0054  1.0000  -17.8762   0.0000   0.1910
  21.500   1.6189   0.06625   0.06325   0.0392  0.0053  1.0000  -17.8196   0.0000   0.1917
  22.000   1.5577   0.08257   0.07987   0.0308  0.0052  1.0000  -17.3884   0.0000   0.1945
  22.500   1.4355   0.11049   0.10821   0.0154  0.0055  1.0000  -16.0171   0.0000   0.2018
  23.500   1.0006   0.22252   0.22143  -0.0563  0.0060  1.0000  -8.1355   0.0000   0.2688
  24.000   0.9943   0.23458   0.23353  -0.0648  0.0055  1.0000  -7.7545   0.0000   0.2770
  24.500   1.0020   0.24216   0.24112  -0.0708  0.0051  1.0000  -7.7626   0.0000   0.2812
  25.000   1.0047   0.25174   0.25076  -0.0779  0.0048  1.0000  -7.5610   0.0000   0.2872
  25.500   1.0135   0.25907   0.25810  -0.0839  0.0045  1.0000  -7.5591   0.0000   0.2912
  26.000   1.0209   0.26704   0.26607  -0.0902  0.0041  1.0000  -7.4692   0.0000   0.2958
  26.500   1.0303   0.27420   0.27327  -0.0962  0.0039  1.0000  -7.4404   0.0000   0.2996
  27.000   1.0341   0.28415   0.28327  -0.1035  0.0035  1.0000  -7.0817   0.0000   0.3055
  27.500   1.0402   0.29338   0.29252  -0.1105  0.0032  1.0000  -6.7595   0.0000   0.3107


