xflr5 v6.33

 Calculated polar for: NACA 0012-64

 1 1 Reynolds number fixed          Mach number fixed         

 xtrf =   1.000 (top)        1.000 (bottom)
 Mach =   0.000     Re =     3.700 e 6     Ncrit =   9.000

  alpha     CL        CD       CDp       Cm    Top Xtr Bot Xtr   Cpmin    Chinge    XCp    
 ------- -------- --------- --------- -------- ------- ------- -------- --------- ---------
 -26.500  -1.0233   0.27496   0.27398   0.0967  1.0000  0.0039  -7.1590   0.0000   0.3010
 -26.000  -1.0129   0.26824   0.26725   0.0909  1.0000  0.0043  -7.1657   0.0000   0.2975
 -25.500  -1.0038   0.26106   0.26005   0.0849  1.0000  0.0046  -7.2002   0.0000   0.2935
 -25.000  -1.0003   0.25162   0.25056   0.0778  1.0000  0.0050  -7.4417   0.0000   0.2876
 -24.500  -0.9959   0.24273   0.24164   0.0711  1.0000  0.0054  -7.5970   0.0000   0.2821
 -24.000  -0.9895   0.23475   0.23365   0.0648  1.0000  0.0058  -7.6402   0.0000   0.2774
 -23.500  -0.9926   0.22381   0.22266   0.0570  1.0000  0.0063  -7.9372   0.0000   0.2701
 -23.000  -1.0015   0.21133   0.21010   0.0482  1.0000  0.0065  -8.3267   0.0000   0.2616
 -22.500  -1.0555   0.18746   0.18609   0.0322  1.0000  0.0071  -9.6434   0.0000   0.2443
 -22.000  -1.4785   0.09530   0.09279  -0.0243  1.0000  0.0060  -16.3205   0.0000   0.1977
 -21.500  -1.5690   0.07335   0.07047  -0.0361  1.0000  0.0060  -17.1853   0.0000   0.1927
 -21.000  -1.6122   0.06033   0.05719  -0.0423  1.0000  0.0060  -17.3579   0.0000   0.1911
 -20.500  -1.6354   0.05115   0.04781  -0.0456  1.0000  0.0061  -17.2505   0.0000   0.1910
 -20.000  -1.6469   0.04427   0.04076  -0.0470  1.0000  0.0063  -16.9843   0.0000   0.1918
 -19.500  -1.6494   0.03899   0.03532  -0.0470  1.0000  0.0064  -16.6078   0.0000   0.1931
 -19.000  -1.6452   0.03483   0.03101  -0.0461  1.0000  0.0065  -16.1543   0.0000   0.1949
 -18.500  -1.6420   0.03092   0.02696  -0.0442  1.0000  0.0068  -15.7140   0.0000   0.1972
 -18.000  -1.6338   0.02772   0.02363  -0.0416  1.0000  0.0073  -15.2374   0.0000   0.1998
 -17.500  -1.6190   0.02523   0.02104  -0.0389  1.0000  0.0077  -14.7021   0.0000   0.2024
 -17.000  -1.5987   0.02326   0.01897  -0.0360  1.0000  0.0080  -14.1226   0.0000   0.2049
 -16.500  -1.5767   0.02149   0.01711  -0.0328  1.0000  0.0085  -13.5398   0.0000   0.2076
 -16.000  -1.5535   0.01985   0.01540  -0.0294  1.0000  0.0092  -12.9568   0.0000   0.2105
 -15.500  -1.5253   0.01859   0.01405  -0.0262  1.0000  0.0098  -12.3621   0.0000   0.2132
 -15.000  -1.4959   0.01742   0.01282  -0.0229  1.0000  0.0107  -11.7713   0.0000   0.2160
 -14.500  -1.4658   0.01637   0.01173  -0.0194  1.0000  0.0118  -11.1841   0.0000   0.2190
 -14.000  -1.4361   0.01551   0.01083  -0.0153  1.0000  0.0130  -10.6105   0.0000   0.2224
 -13.500  -1.4063   0.01480   0.01009  -0.0110  1.0000  0.0142  -10.0455   0.0000   0.2261
 -13.000  -1.3799   0.01424   0.00950  -0.0057  1.0000  0.0151  -9.5140   0.0000   0.2306
 -12.500  -1.3328   0.01353   0.00879  -0.0049  0.9991  0.0166  -8.8674   0.0000   0.2319
 -12.000  -1.2765   0.01295   0.00819  -0.0060  0.9978  0.0175  -8.1829   0.0000   0.2317
 -11.500  -1.2197   0.01229   0.00752  -0.0071  0.9965  0.0188  -7.5220   0.0000   0.2313
 -11.000  -1.1610   0.01176   0.00701  -0.0085  0.9956  0.0200  -6.8709   0.0000   0.2305
 -10.500  -1.1021   0.01133   0.00658  -0.0099  0.9941  0.0208  -6.2425   0.0000   0.2296
 -10.000  -1.0458   0.01076   0.00599  -0.0107  0.9911  0.0217  -5.6675   0.0000   0.2290
  -9.500  -0.9894   0.01024   0.00548  -0.0114  0.9876  0.0229  -5.1579   0.0000   0.2283
  -9.000  -0.9389   0.00985   0.00509  -0.0106  0.9806  0.0238  -4.7045   0.0000   0.2291
  -8.500  -0.8885   0.00952   0.00474  -0.0098  0.9732  0.0244  -4.2674   0.0000   0.2300
  -8.000  -0.8378   0.00918   0.00439  -0.0090  0.9654  0.0249  -3.8615   0.0000   0.2308
  -7.500  -0.7881   0.00871   0.00388  -0.0079  0.9565  0.0267  -3.5027   0.0000   0.2320
  -7.000  -0.7362   0.00838   0.00354  -0.0073  0.9474  0.0278  -3.1796   0.0000   0.2326
  -6.500  -0.6832   0.00807   0.00321  -0.0069  0.9381  0.0286  -2.8989   0.0000   0.2328
  -6.000  -0.6295   0.00780   0.00293  -0.0066  0.9281  0.0291  -2.6258   0.0000   0.2328
  -5.500  -0.5763   0.00747   0.00258  -0.0062  0.9177  0.0316  -2.3694   0.0000   0.2329
  -5.000  -0.5223   0.00722   0.00232  -0.0059  0.9057  0.0336  -2.1143   0.0000   0.2326
  -4.500  -0.4683   0.00695   0.00206  -0.0057  0.8930  0.0394  -1.8697   0.0000   0.2322
  -4.000  -0.4151   0.00659   0.00179  -0.0053  0.8800  0.0623  -1.6378   0.0000   0.2318
  -3.500  -0.3608   0.00633   0.00159  -0.0051  0.8660  0.0809  -1.4243   0.0000   0.2307
  -3.000  -0.3069   0.00605   0.00140  -0.0048  0.8511  0.1102  -1.2195   0.0000   0.2293
  -2.000  -0.2003   0.00545   0.00107  -0.0040  0.8112  0.2125  -0.8597   0.0000   0.2251
  -1.500  -0.1506   0.00495   0.00089  -0.0030  0.7789  0.3304  -0.6981   0.0000   0.2254
  -1.000  -0.1016   0.00445   0.00073  -0.0018  0.7453  0.4664  -0.5442   0.0000   0.2275
  -0.500  -0.0507   0.00416   0.00064  -0.0010  0.7055  0.5641  -0.4243   0.0000   0.2268
   0.000   0.0000   0.00413   0.00062  -0.0000  0.6359  0.6359  -0.3386   0.0000   0.4790
   0.500   0.0507   0.00416   0.00064   0.0010  0.5641  0.7055  -0.4243   0.0000   0.2268
   1.000   0.1016   0.00445   0.00073   0.0018  0.4664  0.7453  -0.5442   0.0000   0.2275
   1.500   0.1506   0.00495   0.00089   0.0030  0.3304  0.7789  -0.6981   0.0000   0.2255
   2.000   0.2003   0.00545   0.00107   0.0040  0.2125  0.8112  -0.8597   0.0000   0.2251
   3.000   0.3069   0.00605   0.00140   0.0048  0.1103  0.8511  -1.2196   0.0000   0.2293
   3.500   0.3609   0.00633   0.00159   0.0051  0.0809  0.8660  -1.4244   0.0000   0.2307
   4.000   0.4151   0.00659   0.00179   0.0053  0.0623  0.8800  -1.6379   0.0000   0.2319
   4.500   0.4683   0.00695   0.00206   0.0057  0.0394  0.8930  -1.8698   0.0000   0.2322
   5.000   0.5224   0.00722   0.00232   0.0059  0.0336  0.9057  -2.1144   0.0000   0.2327
   5.500   0.5764   0.00747   0.00258   0.0062  0.0316  0.9177  -2.3695   0.0000   0.2330
   6.000   0.6296   0.00780   0.00293   0.0066  0.0291  0.9281  -2.6260   0.0000   0.2329
   6.500   0.6832   0.00807   0.00321   0.0069  0.0286  0.9381  -2.8991   0.0000   0.2329
   7.000   0.7363   0.00838   0.00354   0.0073  0.0278  0.9474  -3.1799   0.0000   0.2326
   7.500   0.7882   0.00871   0.00388   0.0079  0.0267  0.9565  -3.5031   0.0000   0.2320
   8.000   0.8379   0.00918   0.00439   0.0089  0.0249  0.9654  -3.8620   0.0000   0.2309
   8.500   0.8886   0.00952   0.00474   0.0097  0.0244  0.9732  -4.2680   0.0000   0.2300
   9.000   0.9391   0.00985   0.00509   0.0106  0.0238  0.9806  -4.7052   0.0000   0.2292
   9.500   0.9895   0.01024   0.00548   0.0114  0.0229  0.9876  -5.1586   0.0000   0.2283
  10.000   1.0460   0.01076   0.00599   0.0106  0.0217  0.9911  -5.6683   0.0000   0.2290
  10.500   1.1023   0.01133   0.00658   0.0098  0.0208  0.9941  -6.2433   0.0000   0.2296
  11.000   1.1612   0.01175   0.00701   0.0085  0.0200  0.9956  -6.8721   0.0000   0.2305
  11.500   1.2199   0.01229   0.00752   0.0071  0.0188  0.9965  -7.5233   0.0000   0.2313
  12.000   1.2767   0.01295   0.00819   0.0059  0.0175  0.9978  -8.1843   0.0000   0.2317
  12.500   1.3331   0.01353   0.00879   0.0049  0.0166  0.9992  -8.8691   0.0000   0.2319
  13.000   1.3798   0.01424   0.00949   0.0058  0.0151  1.0000  -9.5131   0.0000   0.2306
  13.500   1.4064   0.01479   0.01009   0.0110  0.0142  1.0000  -10.0461   0.0000   0.2261
  14.000   1.4366   0.01551   0.01083   0.0152  0.0129  1.0000  -10.6137   0.0000   0.2225
  14.500   1.4665   0.01637   0.01173   0.0193  0.0118  1.0000  -11.1886   0.0000   0.2191
  15.000   1.4967   0.01742   0.01282   0.0228  0.0107  1.0000  -11.7764   0.0000   0.2161
  15.500   1.5262   0.01858   0.01405   0.0261  0.0098  1.0000  -12.3685   0.0000   0.2134
  16.000   1.5545   0.01985   0.01539   0.0292  0.0092  1.0000  -12.9640   0.0000   0.2107
  16.500   1.5777   0.02149   0.01710   0.0326  0.0085  1.0000  -13.5481   0.0000   0.2078
  17.000   1.6000   0.02325   0.01896   0.0358  0.0080  1.0000  -14.1329   0.0000   0.2051
  17.500   1.6204   0.02521   0.02102   0.0386  0.0077  1.0000  -14.7136   0.0000   0.2026
  18.000   1.6353   0.02770   0.02361   0.0414  0.0073  1.0000  -15.2503   0.0000   0.2000
  18.500   1.6437   0.03090   0.02693   0.0439  0.0068  1.0000  -15.7287   0.0000   0.1974
  19.000   1.6473   0.03478   0.03096   0.0458  0.0065  1.0000  -16.1734   0.0000   0.1951
  19.500   1.6518   0.03892   0.03525   0.0467  0.0064  1.0000  -16.6298   0.0000   0.1934
  20.000   1.6494   0.04418   0.04066   0.0466  0.0063  1.0000  -17.0085   0.0000   0.1920
  20.500   1.6382   0.05104   0.04770   0.0453  0.0061  1.0000  -17.2776   0.0000   0.1912
  21.000   1.6152   0.06019   0.05705   0.0420  0.0060  1.0000  -17.3883   0.0000   0.1914
  21.500   1.5724   0.07317   0.07029   0.0358  0.0059  1.0000  -17.2203   0.0000   0.1930
  22.000   1.4828   0.09499   0.09247   0.0240  0.0060  1.0000  -16.3676   0.0000   0.1979
  23.000   1.0030   0.21190   0.21067  -0.0487  0.0065  1.0000  -8.3293   0.0000   0.2620
  23.500   0.9942   0.22443   0.22328  -0.0574  0.0063  1.0000  -7.9428   0.0000   0.2705
  24.000   0.9912   0.23548   0.23438  -0.0653  0.0058  1.0000  -7.6470   0.0000   0.2778
  24.500   0.9977   0.24355   0.24246  -0.0715  0.0054  1.0000  -7.6050   0.0000   0.2825
  25.000   1.0020   0.25258   0.25153  -0.0784  0.0050  1.0000  -7.4465   0.0000   0.2880
  25.500   1.0055   0.26223   0.26122  -0.0855  0.0046  1.0000  -7.2002   0.0000   0.2939
  26.000   1.0149   0.26947   0.26847  -0.0914  0.0043  1.0000  -7.1753   0.0000   0.2978
  26.500   1.0251   0.27644   0.27545  -0.0973  0.0039  1.0000  -7.1534   0.0000   0.3014


