xflr5 v6.33

 Calculated polar for: NACA 0012-64

 1 1 Reynolds number fixed          Mach number fixed         

 xtrf =   1.000 (top)        1.000 (bottom)
 Mach =   0.000     Re =     3.100 e 6     Ncrit =   9.000

  alpha     CL        CD       CDp       Cm    Top Xtr Bot Xtr   Cpmin    Chinge    XCp    
 ------- -------- --------- --------- -------- ------- ------- -------- --------- ---------
 -30.000  -0.6416   0.30785   0.30706   0.0664  1.0000  0.0016  -1.2589   0.0000   0.3237
 -29.500  -0.6365   0.30256   0.30176   0.0636  1.0000  0.0018  -1.2399   0.0000   0.3211
 -25.000  -0.9972   0.25256   0.25144   0.0784  1.0000  0.0052  -7.3111   0.0000   0.2885
 -24.500  -0.9877   0.24560   0.24448   0.0726  1.0000  0.0057  -7.2877   0.0000   0.2846
 -24.000  -0.9848   0.23621   0.23506   0.0657  1.0000  0.0061  -7.4755   0.0000   0.2787
 -23.500  -0.9897   0.22452   0.22330   0.0574  1.0000  0.0065  -7.8490   0.0000   0.2708
 -23.000  -0.9942   0.21335   0.21209   0.0494  1.0000  0.0071  -8.1313   0.0000   0.2633
 -22.500  -1.0248   0.19535   0.19399   0.0372  1.0000  0.0076  -8.9679   0.0000   0.2505
 -22.000  -1.2261   0.14136   0.13947   0.0023  1.0000  0.0073  -12.6132   0.0000   0.2160
 -21.500  -1.4676   0.08987   0.08724  -0.0271  1.0000  0.0065  -15.8470   0.0000   0.1970
 -21.000  -1.5483   0.06959   0.06660  -0.0380  1.0000  0.0064  -16.5594   0.0000   0.1926
 -20.500  -1.5836   0.05785   0.05462  -0.0433  1.0000  0.0065  -16.6286   0.0000   0.1913
 -20.000  -1.6029   0.04933   0.04589  -0.0462  1.0000  0.0066  -16.4753   0.0000   0.1913
 -19.500  -1.6194   0.04207   0.03842  -0.0472  1.0000  0.0069  -16.2730   0.0000   0.1924
 -19.000  -1.6254   0.03668   0.03287  -0.0466  1.0000  0.0072  -15.9390   0.0000   0.1942
 -18.500  -1.6228   0.03258   0.02863  -0.0451  1.0000  0.0075  -15.5099   0.0000   0.1963
 -18.000  -1.6131   0.02936   0.02529  -0.0430  1.0000  0.0078  -15.0260   0.0000   0.1986
 -17.500  -1.5974   0.02683   0.02263  -0.0406  1.0000  0.0081  -14.4885   0.0000   0.2009
 -17.000  -1.5822   0.02441   0.02009  -0.0376  1.0000  0.0086  -13.9665   0.0000   0.2037
 -16.500  -1.5632   0.02239   0.01797  -0.0344  1.0000  0.0093  -13.4128   0.0000   0.2065
 -16.000  -1.5386   0.02081   0.01631  -0.0313  1.0000  0.0098  -12.8200   0.0000   0.2092
 -15.500  -1.5122   0.01940   0.01480  -0.0280  1.0000  0.0105  -12.2466   0.0000   0.2119
 -15.000  -1.4844   0.01810   0.01346  -0.0246  1.0000  0.0116  -11.6707   0.0000   0.2148
 -14.500  -1.4534   0.01706   0.01236  -0.0213  1.0000  0.0125  -11.0808   0.0000   0.2176
 -14.000  -1.4229   0.01614   0.01140  -0.0176  1.0000  0.0140  -10.5045   0.0000   0.2207
 -13.500  -1.3923   0.01548   0.01069  -0.0135  1.0000  0.0147  -9.9362   0.0000   0.2243
 -13.000  -1.3648   0.01478   0.00997  -0.0086  1.0000  0.0161  -9.4033   0.0000   0.2285
 -12.500  -1.3361   0.01427   0.00944  -0.0038  0.9999  0.0171  -8.8711   0.0000   0.2327
 -12.000  -1.2804   0.01362   0.00875  -0.0047  0.9986  0.0180  -8.1922   0.0000   0.2327
 -11.500  -1.2235   0.01296   0.00811  -0.0059  0.9972  0.0195  -7.5292   0.0000   0.2323
 -11.000  -1.1643   0.01247   0.00761  -0.0074  0.9960  0.0205  -6.8741   0.0000   0.2315
 -10.500  -1.1042   0.01199   0.00713  -0.0091  0.9951  0.0211  -6.2402   0.0000   0.2303
 -10.000  -1.0483   0.01130   0.00642  -0.0099  0.9926  0.0225  -5.6706   0.0000   0.2298
  -9.500  -0.9894   0.01081   0.00593  -0.0112  0.9901  0.0235  -5.1477   0.0000   0.2285
  -9.000  -0.9306   0.01038   0.00551  -0.0124  0.9871  0.0243  -4.6606   0.0000   0.2271
  -8.500  -0.8794   0.01004   0.00515  -0.0117  0.9801  0.0247  -4.2220   0.0000   0.2276
  -8.000  -0.8315   0.00945   0.00453  -0.0104  0.9721  0.0264  -3.8381   0.0000   0.2290
  -7.500  -0.7813   0.00907   0.00414  -0.0094  0.9638  0.0276  -3.4739   0.0000   0.2299
  -7.000  -0.7300   0.00873   0.00377  -0.0087  0.9552  0.0285  -3.1548   0.0000   0.2306
  -6.500  -0.6779   0.00842   0.00344  -0.0081  0.9461  0.0290  -2.8746   0.0000   0.2310
  -6.000  -0.6259   0.00804   0.00303  -0.0074  0.9362  0.0310  -2.6158   0.0000   0.2315
  -5.500  -0.5726   0.00773   0.00272  -0.0070  0.9259  0.0329  -2.3556   0.0000   0.2314
  -5.000  -0.5188   0.00746   0.00243  -0.0067  0.9151  0.0353  -2.1032   0.0000   0.2310
  -4.500  -0.4656   0.00713   0.00214  -0.0063  0.9026  0.0443  -1.8618   0.0000   0.2307
  -4.000  -0.4127   0.00676   0.00187  -0.0059  0.8900  0.0697  -1.6321   0.0000   0.2304
  -3.500  -0.3587   0.00649   0.00166  -0.0056  0.8766  0.0897  -1.4196   0.0000   0.2292
  -3.000  -0.3053   0.00617   0.00146  -0.0052  0.8623  0.1262  -1.2162   0.0000   0.2278
  -2.000  -0.1995   0.00547   0.00110  -0.0043  0.8278  0.2439  -0.8583   0.0000   0.2236
  -1.500  -0.1520   0.00479   0.00088  -0.0029  0.7996  0.3999  -0.7003   0.0000   0.2263
  -1.000  -0.1026   0.00434   0.00074  -0.0018  0.7671  0.5204  -0.5454   0.0000   0.2284
  -0.500  -0.0513   0.00410   0.00066  -0.0009  0.7291  0.6071  -0.4248   0.0000   0.2283
   0.000   0.0000   0.00398   0.00063  -0.0000  0.6815  0.6815  -0.3385   0.0000   0.4754
   0.500   0.0513   0.00410   0.00066   0.0009  0.6071  0.7291  -0.4248   0.0000   0.2283
   1.000   0.1026   0.00434   0.00074   0.0018  0.5205  0.7671  -0.5454   0.0000   0.2284
   1.500   0.1520   0.00479   0.00088   0.0029  0.3999  0.7996  -0.7003   0.0000   0.2264
   2.000   0.1995   0.00547   0.00110   0.0043  0.2438  0.8278  -0.8583   0.0000   0.2236
   3.000   0.3053   0.00617   0.00146   0.0052  0.1262  0.8623  -1.2163   0.0000   0.2279
   3.500   0.3588   0.00649   0.00166   0.0056  0.0897  0.8766  -1.4197   0.0000   0.2292
   4.000   0.4127   0.00676   0.00187   0.0059  0.0697  0.8900  -1.6321   0.0000   0.2304
   4.500   0.4656   0.00714   0.00214   0.0063  0.0443  0.9026  -1.8619   0.0000   0.2308
   5.000   0.5189   0.00746   0.00243   0.0067  0.0353  0.9150  -2.1034   0.0000   0.2311
   5.500   0.5727   0.00773   0.00272   0.0070  0.0329  0.9260  -2.3558   0.0000   0.2314
   6.000   0.6260   0.00804   0.00303   0.0074  0.0310  0.9362  -2.6160   0.0000   0.2315
   6.500   0.6780   0.00842   0.00344   0.0080  0.0290  0.9461  -2.8749   0.0000   0.2311
   7.000   0.7301   0.00873   0.00377   0.0086  0.0285  0.9552  -3.1551   0.0000   0.2306
   7.500   0.7814   0.00907   0.00414   0.0094  0.0276  0.9638  -3.4742   0.0000   0.2300
   8.000   0.8316   0.00945   0.00453   0.0103  0.0264  0.9721  -3.8386   0.0000   0.2291
   8.500   0.8795   0.01004   0.00515   0.0117  0.0247  0.9801  -4.2226   0.0000   0.2277
   9.000   0.9308   0.01038   0.00551   0.0123  0.0243  0.9871  -4.6613   0.0000   0.2272
   9.500   0.9896   0.01081   0.00593   0.0111  0.0235  0.9902  -5.1483   0.0000   0.2286
  10.000   1.0485   0.01130   0.00642   0.0098  0.0225  0.9926  -5.6713   0.0000   0.2298
  10.500   1.1044   0.01199   0.00713   0.0091  0.0211  0.9951  -6.2412   0.0000   0.2303
  11.000   1.1645   0.01247   0.00761   0.0074  0.0205  0.9960  -6.8752   0.0000   0.2315
  11.500   1.2237   0.01296   0.00811   0.0058  0.0195  0.9972  -7.5305   0.0000   0.2323
  12.000   1.2806   0.01362   0.00875   0.0047  0.0180  0.9987  -8.1936   0.0000   0.2327
  12.500   1.3364   0.01427   0.00944   0.0037  0.0171  0.9999  -8.8728   0.0000   0.2328
  13.000   1.3648   0.01478   0.00997   0.0086  0.0161  1.0000  -9.4030   0.0000   0.2285
  13.500   1.3925   0.01548   0.01069   0.0135  0.0147  1.0000  -9.9375   0.0000   0.2243
  14.000   1.4235   0.01614   0.01140   0.0175  0.0139  1.0000  -10.5083   0.0000   0.2208
  14.500   1.4540   0.01706   0.01236   0.0212  0.0125  1.0000  -11.0853   0.0000   0.2177
  15.000   1.4852   0.01810   0.01345   0.0245  0.0116  1.0000  -11.6762   0.0000   0.2149
  15.500   1.5131   0.01940   0.01480   0.0278  0.0105  1.0000  -12.2527   0.0000   0.2120
  16.000   1.5396   0.02081   0.01630   0.0311  0.0098  1.0000  -12.8276   0.0000   0.2093
  16.500   1.5643   0.02238   0.01797   0.0341  0.0093  1.0000  -13.4217   0.0000   0.2066
  17.000   1.5835   0.02440   0.02008   0.0374  0.0086  1.0000  -13.9764   0.0000   0.2038
  17.500   1.5989   0.02681   0.02261   0.0404  0.0081  1.0000  -14.5011   0.0000   0.2011
  18.000   1.6148   0.02934   0.02526   0.0428  0.0078  1.0000  -15.0399   0.0000   0.1988
  18.500   1.6246   0.03255   0.02859   0.0448  0.0075  1.0000  -15.5253   0.0000   0.1965
  19.000   1.6274   0.03664   0.03283   0.0463  0.0072  1.0000  -15.9567   0.0000   0.1944
  19.500   1.6215   0.04202   0.03837   0.0469  0.0068  1.0000  -16.2921   0.0000   0.1926
  20.000   1.6051   0.04928   0.04584   0.0458  0.0065  1.0000  -16.4952   0.0000   0.1916
  20.500   1.5868   0.05769   0.05446   0.0430  0.0065  1.0000  -16.6594   0.0000   0.1915
  21.000   1.5519   0.06937   0.06638   0.0377  0.0064  1.0000  -16.5961   0.0000   0.1928
  21.500   1.4726   0.08943   0.08680   0.0269  0.0064  1.0000  -15.9025   0.0000   0.1972
  22.000   1.2273   0.14164   0.13976  -0.0028  0.0073  1.0000  -12.6142   0.0000   0.2164
  22.500   1.0261   0.19581   0.19445  -0.0377  0.0076  1.0000  -8.9691   0.0000   0.2509
  23.000   0.9957   0.21395   0.21269  -0.0499  0.0071  1.0000  -8.1331   0.0000   0.2638
  23.500   0.9913   0.22521   0.22398  -0.0579  0.0065  1.0000  -7.8510   0.0000   0.2712
  24.000   0.9865   0.23697   0.23582  -0.0662  0.0061  1.0000  -7.4807   0.0000   0.2791
  24.500   0.9893   0.24651   0.24539  -0.0732  0.0057  1.0000  -7.2881   0.0000   0.2850
  25.000   0.9992   0.25350   0.25238  -0.0789  0.0052  1.0000  -7.3216   0.0000   0.2888
  25.500   0.9852   0.27179   0.27077  -0.0900  0.0043  1.0000  -6.1526   0.0000   0.3015


