xflr5 v6.33

 Calculated polar for: NACA 0012-64

 1 1 Reynolds number fixed          Mach number fixed         

 xtrf =   1.000 (top)        1.000 (bottom)
 Mach =   0.000     Re =     0.900 e 6     Ncrit =   9.000

  alpha     CL        CD       CDp       Cm    Top Xtr Bot Xtr   Cpmin    Chinge    XCp    
 ------- -------- --------- --------- -------- ------- ------- -------- --------- ---------
 -21.000  -0.5341   0.21117   0.20946   0.0172  1.0000  0.0127  -1.5008   0.0000   0.2643
 -20.500  -0.5269   0.20657   0.20485   0.0148  1.0000  0.0136  -1.4788   0.0000   0.2607
 -19.500  -1.1273   0.12009   0.11759  -0.0102  1.0000  0.0144  -10.2191   0.0000   0.2113
 -19.000  -1.2170   0.09530   0.09246  -0.0238  1.0000  0.0141  -11.2024   0.0000   0.2020
 -18.500  -1.2850   0.07520   0.07201  -0.0350  1.0000  0.0141  -11.7967   0.0000   0.1956
 -18.000  -1.3223   0.06176   0.05824  -0.0421  1.0000  0.0143  -11.9574   0.0000   0.1924
 -17.500  -1.3401   0.05260   0.04878  -0.0459  1.0000  0.0146  -11.8673   0.0000   0.1913
 -17.000  -1.3576   0.04471   0.04064  -0.0478  1.0000  0.0151  -11.7441   0.0000   0.1917
 -16.500  -1.3555   0.03979   0.03558  -0.0478  1.0000  0.0157  -11.4093   0.0000   0.1928
 -16.000  -1.3425   0.03634   0.03198  -0.0470  1.0000  0.0164  -10.9887   0.0000   0.1942
 -15.500  -1.3262   0.03341   0.02884  -0.0456  1.0000  0.0173  -10.5548   0.0000   0.1959
 -15.000  -1.3144   0.03036   0.02561  -0.0433  1.0000  0.0181  -10.1606   0.0000   0.1984
 -14.500  -1.2887   0.02864   0.02383  -0.0413  1.0000  0.0191  -9.6452   0.0000   0.2002
 -14.000  -1.2606   0.02720   0.02224  -0.0392  1.0000  0.0202  -9.1290   0.0000   0.2021
 -13.500  -1.2349   0.02561   0.02045  -0.0364  1.0000  0.0211  -8.6505   0.0000   0.2046
 -13.000  -1.2123   0.02391   0.01869  -0.0328  1.0000  0.0221  -8.1944   0.0000   0.2078
 -12.500  -1.1821   0.02295   0.01765  -0.0297  1.0000  0.0233  -7.6911   0.0000   0.2106
 -12.000  -1.1534   0.02209   0.01663  -0.0258  1.0000  0.0244  -7.2156   0.0000   0.2141
 -11.500  -1.1366   0.02069   0.01509  -0.0196  1.0000  0.0253  -6.8328   0.0000   0.2200
 -11.000  -1.1151   0.01971   0.01408  -0.0138  1.0000  0.0263  -6.4170   0.0000   0.2255
 -10.500  -1.0915   0.01905   0.01334  -0.0082  1.0000  0.0275  -5.9978   0.0000   0.2310
 -10.000  -1.0666   0.01848   0.01267  -0.0027  1.0000  0.0286  -5.5936   0.0000   0.2367
  -9.500  -1.0443   0.01747   0.01155   0.0033  1.0000  0.0295  -5.2519   0.0000   0.2430
  -9.000  -0.9878   0.01618   0.01023   0.0018  0.9975  0.0312  -4.7780   0.0000   0.2423
  -8.500  -0.9256   0.01539   0.00938  -0.0004  0.9953  0.0330  -4.3033   0.0000   0.2405
  -8.000  -0.8653   0.01463   0.00854  -0.0021  0.9918  0.0341  -3.8597   0.0000   0.2391
  -7.500  -0.8062   0.01334   0.00722  -0.0038  0.9887  0.0364  -3.4862   0.0000   0.2373
  -7.000  -0.7430   0.01261   0.00645  -0.0061  0.9860  0.0384  -3.1237   0.0000   0.2343
  -6.500  -0.6814   0.01193   0.00572  -0.0078  0.9818  0.0401  -2.8059   0.0000   0.2313
  -6.000  -0.6153   0.01114   0.00493  -0.0107  0.9796  0.0439  -2.5302   0.0000   0.2259
  -5.500  -0.5541   0.01052   0.00433  -0.0122  0.9748  0.0497  -2.2720   0.0000   0.2214
  -5.000  -0.4934   0.00985   0.00379  -0.0137  0.9701  0.0695  -2.0223   0.0000   0.2161
  -4.500  -0.4403   0.00925   0.00335  -0.0133  0.9618  0.1018  -1.7899   0.0000   0.2137
  -4.000  -0.3899   0.00862   0.00294  -0.0124  0.9525  0.1539  -1.5780   0.0000   0.2124
  -3.500  -0.3412   0.00796   0.00258  -0.0112  0.9425  0.2265  -1.3801   0.0000   0.2118
  -3.000  -0.2973   0.00700   0.00217  -0.0090  0.9305  0.3664  -1.1978   0.0000   0.2145
  -2.500  -0.2554   0.00601   0.00183  -0.0063  0.9178  0.5430  -1.0345   0.0000   0.2202
  -2.000  -0.2097   0.00541   0.00165  -0.0041  0.9050  0.6631  -0.8719   0.0000   0.2256
  -1.500  -0.1587   0.00515   0.00156  -0.0029  0.8919  0.7243  -0.7071   0.0000   0.2272
  -1.000  -0.1058   0.00500   0.00151  -0.0020  0.8781  0.7681  -0.5471   0.0000   0.2265
  -0.500  -0.0526   0.00491   0.00146  -0.0011  0.8593  0.8027  -0.4250   0.0000   0.2251
   0.000  -0.0000   0.00488   0.00143   0.0000  0.8325  0.8325  -0.3374   0.0000   0.4616
   0.500   0.0526   0.00491   0.00146   0.0011  0.8027  0.8593  -0.4250   0.0000   0.2251
   1.000   0.1058   0.00500   0.00151   0.0020  0.7681  0.8781  -0.5471   0.0000   0.2265
   1.500   0.1587   0.00515   0.00156   0.0029  0.7243  0.8919  -0.7071   0.0000   0.2272
   2.000   0.2097   0.00541   0.00165   0.0041  0.6631  0.9050  -0.8719   0.0000   0.2256
   2.500   0.2554   0.00601   0.00183   0.0063  0.5430  0.9178  -1.0345   0.0000   0.2202
   3.000   0.2973   0.00701   0.00217   0.0090  0.3664  0.9305  -1.1978   0.0000   0.2145
   3.500   0.3412   0.00796   0.00258   0.0111  0.2265  0.9425  -1.3801   0.0000   0.2118
   4.000   0.3900   0.00862   0.00294   0.0124  0.1539  0.9525  -1.5780   0.0000   0.2124
   4.500   0.4404   0.00925   0.00335   0.0133  0.1018  0.9618  -1.7900   0.0000   0.2137
   5.000   0.4935   0.00985   0.00379   0.0136  0.0695  0.9701  -2.0224   0.0000   0.2161
   5.500   0.5542   0.01052   0.00433   0.0122  0.0497  0.9748  -2.2721   0.0000   0.2214
   6.000   0.6154   0.01114   0.00493   0.0106  0.0439  0.9797  -2.5303   0.0000   0.2259
   6.500   0.6814   0.01193   0.00571   0.0078  0.0401  0.9819  -2.8061   0.0000   0.2313
   7.000   0.7431   0.01261   0.00645   0.0061  0.0384  0.9860  -3.1238   0.0000   0.2343
   7.500   0.8063   0.01334   0.00722   0.0038  0.0364  0.9888  -3.4865   0.0000   0.2373
   8.000   0.8654   0.01463   0.00854   0.0021  0.0341  0.9919  -3.8600   0.0000   0.2391
   8.500   0.9257   0.01539   0.00938   0.0004  0.0330  0.9953  -4.3039   0.0000   0.2406
   9.000   0.9879   0.01618   0.01022  -0.0019  0.0312  0.9975  -4.7786   0.0000   0.2423
   9.500   1.0442   0.01747   0.01155  -0.0032  0.0295  1.0000  -5.2515   0.0000   0.2429
  10.000   1.0665   0.01848   0.01267   0.0027  0.0286  1.0000  -5.5931   0.0000   0.2367
  10.500   1.0914   0.01904   0.01334   0.0082  0.0275  1.0000  -5.9975   0.0000   0.2310
  11.000   1.1151   0.01971   0.01407   0.0138  0.0263  1.0000  -6.4172   0.0000   0.2255
  11.500   1.1368   0.02069   0.01509   0.0195  0.0253  1.0000  -6.8338   0.0000   0.2200
  12.000   1.1538   0.02208   0.01663   0.0257  0.0243  1.0000  -7.2181   0.0000   0.2141
  12.500   1.1827   0.02295   0.01764   0.0296  0.0233  1.0000  -7.6945   0.0000   0.2107
  13.000   1.2130   0.02391   0.01869   0.0327  0.0221  1.0000  -8.1986   0.0000   0.2079
  13.500   1.2354   0.02562   0.02047   0.0362  0.0211  1.0000  -8.6535   0.0000   0.2047
  14.000   1.2616   0.02718   0.02223   0.0390  0.0202  1.0000  -9.1353   0.0000   0.2022
  14.500   1.2898   0.02863   0.02381   0.0412  0.0190  1.0000  -9.6530   0.0000   0.2003
  15.000   1.3155   0.03034   0.02559   0.0431  0.0181  1.0000  -10.1686   0.0000   0.1985
  15.500   1.3277   0.03338   0.02882   0.0454  0.0173  1.0000  -10.5649   0.0000   0.1961
  16.000   1.3441   0.03630   0.03194   0.0468  0.0164  1.0000  -11.0004   0.0000   0.1944
  16.500   1.3573   0.03974   0.03552   0.0476  0.0157  1.0000  -11.4236   0.0000   0.1931
  17.000   1.3593   0.04468   0.04061   0.0475  0.0151  1.0000  -11.7566   0.0000   0.1920
  17.500   1.3424   0.05251   0.04869   0.0457  0.0146  1.0000  -11.8855   0.0000   0.1916
  18.000   1.3247   0.06165   0.05814   0.0419  0.0142  1.0000  -11.9775   0.0000   0.1927
  18.500   1.2877   0.07508   0.07188   0.0347  0.0140  1.0000  -11.8190   0.0000   0.1959
  19.000   1.2195   0.09523   0.09239   0.0235  0.0141  1.0000  -11.2224   0.0000   0.2023
  19.500   1.1290   0.12020   0.11770   0.0098  0.0143  1.0000  -10.2276   0.0000   0.2117
  20.000   1.0344   0.14817   0.14598  -0.0063  0.0144  1.0000  -8.9457   0.0000   0.2256
  20.500   0.5265   0.20638   0.20466  -0.0147  0.0136  1.0000  -1.4777   0.0000   0.2606
  21.000   0.5336   0.21098   0.20927  -0.0171  0.0127  1.0000  -1.4992   0.0000   0.2642
  21.500   0.5434   0.21456   0.21286  -0.0192  0.0123  1.0000  -1.6211   0.0000   0.2666
  22.000   0.5436   0.22213   0.22044  -0.0223  0.0115  1.0000  -1.3884   0.0000   0.2725
  22.500   0.5505   0.22707   0.22540  -0.0248  0.0106  1.0000  -1.3969   0.0000   0.2760
  23.000   0.5588   0.23126   0.22959  -0.0272  0.0102  1.0000  -1.4746   0.0000   0.2789
  23.500   0.5680   0.23538   0.23373  -0.0292  0.0100  1.0000  -1.5874   0.0000   0.2806


