xflr5 v6.33

 Calculated polar for: NACA 0012 v1

 1 1 Reynolds number fixed          Mach number fixed         

 xtrf =   1.000 (top)        1.000 (bottom)
 Mach =   0.000     Re =     1.400 e 6     Ncrit =   9.000

  alpha     CL        CD       CDp       Cm    Top Xtr Bot Xtr   Cpmin    Chinge    XCp    
 ------- -------- --------- --------- -------- ------- ------- -------- --------- ---------
 -23.000  -1.1057   0.20383   0.20203   0.0690  1.0000  0.0103  -8.4452   0.0000   0.2757
 -22.500  -1.1176   0.19216   0.19026   0.0598  1.0000  0.0106  -8.7703   0.0000   0.2676
 -22.000  -1.1271   0.18131   0.17933   0.0514  1.0000  0.0109  -8.9767   0.0000   0.2607
 -21.500  -1.1409   0.16967   0.16757   0.0427  1.0000  0.0111  -9.2092   0.0000   0.2535
 -21.000  -1.1589   0.15740   0.15517   0.0340  1.0000  0.0114  -9.4508   0.0000   0.2464
 -20.500  -1.1821   0.14438   0.14200   0.0252  1.0000  0.0115  -9.7098   0.0000   0.2393
 -20.000  -1.2133   0.13017   0.12761   0.0161  1.0000  0.0116  -10.0124   0.0000   0.2324
 -19.500  -1.2556   0.11440   0.11164   0.0069  1.0000  0.0117  -10.3811   0.0000   0.2256
 -19.000  -1.3108   0.09700   0.09400  -0.0026  1.0000  0.0117  -10.8217   0.0000   0.2193
 -18.500  -1.3702   0.07962   0.07634  -0.0115  1.0000  0.0117  -11.2391   0.0000   0.2141
 -18.000  -1.4186   0.06473   0.06118  -0.0191  1.0000  0.0117  -11.4945   0.0000   0.2103
 -17.500  -1.4488   0.05320   0.04938  -0.0247  1.0000  0.0118  -11.5463   0.0000   0.2080
 -17.000  -1.4625   0.04465   0.04058  -0.0285  1.0000  0.0120  -11.4270   0.0000   0.2068
 -16.500  -1.4630   0.03847   0.03419  -0.0304  1.0000  0.0121  -11.1799   0.0000   0.2067
 -16.000  -1.4739   0.03208   0.02758  -0.0309  1.0000  0.0125  -11.0070   0.0000   0.2077
 -15.500  -1.4653   0.02845   0.02381  -0.0294  1.0000  0.0129  -10.6592   0.0000   0.2097
 -15.000  -1.4484   0.02593   0.02116  -0.0271  1.0000  0.0134  -10.2495   0.0000   0.2120
 -14.500  -1.4280   0.02393   0.01902  -0.0241  1.0000  0.0139  -9.8214   0.0000   0.2148
 -14.000  -1.4040   0.02234   0.01729  -0.0206  1.0000  0.0143  -9.3754   0.0000   0.2179
 -13.500  -1.3834   0.02055   0.01540  -0.0162  1.0000  0.0150  -8.9601   0.0000   0.2217
 -13.000  -1.3474   0.01935   0.01411  -0.0139  1.0000  0.0157  -8.4535   0.0000   0.2239
 -12.500  -1.3070   0.01835   0.01300  -0.0120  1.0000  0.0164  -7.9357   0.0000   0.2259
 -12.000  -1.2687   0.01707   0.01167  -0.0098  1.0000  0.0176  -7.4644   0.0000   0.2281
 -11.500  -1.2247   0.01621   0.01073  -0.0083  1.0000  0.0186  -6.9748   0.0000   0.2298
 -11.000  -1.1821   0.01519   0.00966  -0.0065  1.0000  0.0199  -6.5083   0.0000   0.2318
 -10.500  -1.1363   0.01447   0.00888  -0.0050  1.0000  0.0213  -6.0355   0.0000   0.2336
 -10.000  -1.0925   0.01364   0.00803  -0.0031  1.0000  0.0233  -5.5866   0.0000   0.2358
  -9.500  -1.0491   0.01292   0.00728  -0.0010  1.0000  0.0253  -5.1680   0.0000   0.2384
  -9.000  -1.0058   0.01230   0.00663   0.0013  1.0000  0.0277  -4.7674   0.0000   0.2412
  -8.500  -0.9633   0.01171   0.00604   0.0038  1.0000  0.0308  -4.3812   0.0000   0.2444
  -8.000  -0.9215   0.01116   0.00549   0.0064  1.0000  0.0344  -4.0141   0.0000   0.2480
  -7.500  -0.8712   0.01064   0.00498   0.0072  0.9993  0.0395  -3.6436   0.0000   0.2499
  -7.000  -0.8041   0.01006   0.00445   0.0045  0.9968  0.0473  -3.2312   0.0000   0.2477
  -6.500  -0.7368   0.00949   0.00395   0.0017  0.9940  0.0587  -2.8543   0.0000   0.2449
  -6.000  -0.6695   0.00893   0.00349  -0.0010  0.9907  0.0754  -2.4998   0.0000   0.2414
  -5.500  -0.6021   0.00836   0.00306  -0.0038  0.9868  0.0994  -2.1738   0.0000   0.2370
  -5.000  -0.5386   0.00781   0.00267  -0.0056  0.9799  0.1319  -1.8861   0.0000   0.2332
  -4.500  -0.4827   0.00729   0.00233  -0.0056  0.9664  0.1715  -1.6391   0.0000   0.2323
  -4.000  -0.4300   0.00682   0.00203  -0.0048  0.9481  0.2172  -1.4205   0.0000   0.2329
  -3.500  -0.3779   0.00641   0.00177  -0.0039  0.9249  0.2669  -1.2254   0.0000   0.2342
  -3.000  -0.3252   0.00606   0.00154  -0.0030  0.8965  0.3191  -1.0506   0.0000   0.2354
  -2.500  -0.2719   0.00579   0.00136  -0.0023  0.8627  0.3722  -0.8968   0.0000   0.2363
  -2.000  -0.2180   0.00558   0.00121  -0.0017  0.8239  0.4254  -0.7636   0.0000   0.2371
  -1.500  -0.1638   0.00543   0.00110  -0.0012  0.7804  0.4786  -0.6510   0.0000   0.2377
  -1.000  -0.1094   0.00533   0.00102  -0.0008  0.7335  0.5310  -0.5570   0.0000   0.2382
  -0.500  -0.0547   0.00528   0.00097  -0.0004  0.6846  0.5831  -0.4791   0.0000   0.2385
   0.000  -0.0000   0.00526   0.00096  -0.0000  0.6343  0.6343  -0.4135   0.0000   0.4536
   0.500   0.0547   0.00528   0.00097   0.0004  0.5831  0.6846  -0.4791   0.0000   0.2385
   1.000   0.1094   0.00533   0.00102   0.0008  0.5310  0.7335  -0.5570   0.0000   0.2382
   1.500   0.1638   0.00543   0.00110   0.0012  0.4786  0.7803  -0.6510   0.0000   0.2377
   2.000   0.2180   0.00558   0.00121   0.0018  0.4254  0.8239  -0.7636   0.0000   0.2371
   2.500   0.2719   0.00579   0.00136   0.0024  0.3722  0.8627  -0.8968   0.0000   0.2363
   3.000   0.3252   0.00606   0.00154   0.0031  0.3190  0.8965  -1.0506   0.0000   0.2354
   3.500   0.3780   0.00641   0.00177   0.0039  0.2668  0.9249  -1.2255   0.0000   0.2342
   4.000   0.4300   0.00682   0.00203   0.0049  0.2172  0.9481  -1.4205   0.0000   0.2330
   4.500   0.4827   0.00729   0.00233   0.0057  0.1715  0.9664  -1.6391   0.0000   0.2323
   5.000   0.5386   0.00781   0.00267   0.0057  0.1319  0.9799  -1.8862   0.0000   0.2332
   5.500   0.6021   0.00836   0.00306   0.0039  0.0994  0.9868  -2.1739   0.0000   0.2370
   6.000   0.6695   0.00893   0.00349   0.0012  0.0754  0.9907  -2.4998   0.0000   0.2414
   6.500   0.7368   0.00949   0.00395  -0.0015  0.0587  0.9941  -2.8544   0.0000   0.2449
   7.000   0.8042   0.01006   0.00445  -0.0042  0.0473  0.9969  -3.2313   0.0000   0.2477
   7.500   0.8713   0.01064   0.00498  -0.0070  0.0395  0.9993  -3.6438   0.0000   0.2499
   8.000   0.9214   0.01116   0.00549  -0.0061  0.0344  1.0000  -4.0138   0.0000   0.2480
   8.500   0.9633   0.01171   0.00603  -0.0034  0.0308  1.0000  -4.3809   0.0000   0.2444
   9.000   1.0058   0.01229   0.00663  -0.0009  0.0277  1.0000  -4.7672   0.0000   0.2412
   9.500   1.0491   0.01292   0.00728   0.0014  0.0253  1.0000  -5.1679   0.0000   0.2384
  10.000   1.0925   0.01364   0.00803   0.0036  0.0233  1.0000  -5.5866   0.0000   0.2358
  10.500   1.1364   0.01447   0.00888   0.0055  0.0213  1.0000  -6.0357   0.0000   0.2336
  11.000   1.1821   0.01519   0.00966   0.0070  0.0199  1.0000  -6.5087   0.0000   0.2318
  11.500   1.2249   0.01621   0.01073   0.0089  0.0186  1.0000  -6.9754   0.0000   0.2299
  12.000   1.2688   0.01707   0.01167   0.0105  0.0176  1.0000  -7.4652   0.0000   0.2281
  12.500   1.3073   0.01835   0.01300   0.0127  0.0164  1.0000  -7.9368   0.0000   0.2259
  13.000   1.3476   0.01935   0.01411   0.0146  0.0157  1.0000  -8.4549   0.0000   0.2240
  13.500   1.3837   0.02056   0.01540   0.0170  0.0150  1.0000  -8.9619   0.0000   0.2217
  14.000   1.4044   0.02235   0.01729   0.0214  0.0143  1.0000  -9.3774   0.0000   0.2179
  14.500   1.4286   0.02393   0.01901   0.0248  0.0139  1.0000  -9.8249   0.0000   0.2149
  15.000   1.4491   0.02592   0.02115   0.0279  0.0134  1.0000  -10.2538   0.0000   0.2121
  15.500   1.4661   0.02844   0.02380   0.0302  0.0129  1.0000  -10.6644   0.0000   0.2098
  16.000   1.4748   0.03207   0.02757   0.0317  0.0125  1.0000  -11.0125   0.0000   0.2078
  16.500   1.4643   0.03842   0.03414   0.0313  0.0121  1.0000  -11.1884   0.0000   0.2068
  17.000   1.4639   0.04459   0.04053   0.0294  0.0120  1.0000  -11.4369   0.0000   0.2069
  17.500   1.4504   0.05314   0.04931   0.0256  0.0118  1.0000  -11.5577   0.0000   0.2081
  18.000   1.4204   0.06466   0.06110   0.0199  0.0117  1.0000  -11.5076   0.0000   0.2104
  18.500   1.3721   0.07954   0.07626   0.0123  0.0117  1.0000  -11.2535   0.0000   0.2142
  19.000   1.3126   0.09694   0.09394   0.0033  0.0117  1.0000  -10.8352   0.0000   0.2195
  19.500   1.2571   0.11439   0.11163  -0.0062  0.0117  1.0000  -10.3920   0.0000   0.2258
  20.000   1.2146   0.13020   0.12764  -0.0156  0.0116  1.0000  -10.0210   0.0000   0.2326
  20.500   1.1833   0.14444   0.14205  -0.0247  0.0115  1.0000  -9.7170   0.0000   0.2395
  21.000   1.1601   0.15748   0.15525  -0.0335  0.0113  1.0000  -9.4572   0.0000   0.2465
  21.500   1.1421   0.16979   0.16769  -0.0423  0.0111  1.0000  -9.2154   0.0000   0.2537
  22.000   1.1283   0.18150   0.17951  -0.0510  0.0109  1.0000  -8.9835   0.0000   0.2609
  22.500   1.1189   0.19236   0.19046  -0.0594  0.0106  1.0000  -8.7780   0.0000   0.2677
  23.000   1.1061   0.20436   0.20256  -0.0689  0.0103  1.0000  -8.4333   0.0000   0.2760


