xflr5 v6.33

 Calculated polar for: NACA 0012-64

 1 1 Reynolds number fixed          Mach number fixed         

 xtrf =   1.000 (top)        1.000 (bottom)
 Mach =   0.000     Re =     1.100 e 6     Ncrit =   9.000

  alpha     CL        CD       CDp       Cm    Top Xtr Bot Xtr   Cpmin    Chinge    XCp    
 ------- -------- --------- --------- -------- ------- ------- -------- --------- ---------
 -21.000  -0.9780   0.17947   0.17763   0.0254  1.0000  0.0125  -8.0143   0.0000   0.2439
 -20.500  -0.9249   0.18468   0.18295   0.0277  1.0000  0.0128  -6.9337   0.0000   0.2497
 -20.000  -0.9034   0.18122   0.17951   0.0251  1.0000  0.0133  -6.5408   0.0000   0.2488
 -19.500  -0.8770   0.17908   0.17738   0.0231  1.0000  0.0136  -6.0601   0.0000   0.2488
 -19.000  -0.8483   0.17755   0.17586   0.0216  1.0000  0.0138  -5.5431   0.0000   0.2492
 -18.500  -0.8199   0.17597   0.17427   0.0199  1.0000  0.0139  -5.0349   0.0000   0.2494
 -18.000  -0.7874   0.17584   0.17413   0.0188  1.0000  0.0136  -4.4292   0.0000   0.2504
 -17.000  -1.4204   0.03812   0.03397  -0.0473  1.0000  0.0137  -12.3696   0.0000   0.1939
 -16.500  -1.4103   0.03450   0.03016  -0.0461  1.0000  0.0144  -11.9473   0.0000   0.1956
 -16.000  -1.4012   0.03109   0.02656  -0.0440  1.0000  0.0151  -11.5453   0.0000   0.1979
 -15.500  -1.3824   0.02869   0.02407  -0.0418  1.0000  0.0160  -11.0665   0.0000   0.2001
 -15.000  -1.3569   0.02692   0.02217  -0.0397  1.0000  0.0169  -10.5423   0.0000   0.2021
 -14.500  -1.3315   0.02522   0.02031  -0.0371  1.0000  0.0178  -10.0327   0.0000   0.2044
 -14.000  -1.3041   0.02376   0.01881  -0.0344  1.0000  0.0189  -9.5079   0.0000   0.2068
 -13.500  -1.2692   0.02287   0.01784  -0.0323  1.0000  0.0201  -8.9392   0.0000   0.2086
 -13.000  -1.2333   0.02210   0.01693  -0.0300  1.0000  0.0209  -8.3830   0.0000   0.2105
 -12.500  -1.2117   0.02053   0.01528  -0.0255  1.0000  0.0221  -7.9397   0.0000   0.2147
 -12.000  -1.1822   0.01987   0.01457  -0.0214  1.0000  0.0231  -7.4415   0.0000   0.2183
 -11.500  -1.1572   0.01926   0.01387  -0.0161  1.0000  0.0241  -6.9872   0.0000   0.2233
 -11.000  -1.1299   0.01878   0.01328  -0.0111  1.0000  0.0247  -6.5313   0.0000   0.2281
 -10.500  -1.1178   0.01742   0.01184  -0.0034  1.0000  0.0259  -6.1854   0.0000   0.2355
 -10.000  -1.0894   0.01680   0.01118   0.0014  0.9998  0.0269  -5.7454   0.0000   0.2405
  -9.500  -1.0294   0.01608   0.01040  -0.0004  0.9977  0.0284  -5.2136   0.0000   0.2394
  -9.000  -0.9698   0.01508   0.00930  -0.0023  0.9956  0.0295  -4.7324   0.0000   0.2381
  -8.500  -0.9130   0.01402   0.00822  -0.0035  0.9925  0.0314  -4.2829   0.0000   0.2371
  -8.000  -0.8515   0.01326   0.00741  -0.0055  0.9896  0.0329  -3.8362   0.0000   0.2351
  -7.500  -0.7865   0.01265   0.00675  -0.0081  0.9878  0.0341  -3.4322   0.0000   0.2317
  -7.000  -0.7287   0.01164   0.00572  -0.0092  0.9837  0.0364  -3.1028   0.0000   0.2297
  -6.500  -0.6644   0.01102   0.00507  -0.0116  0.9811  0.0384  -2.7824   0.0000   0.2253
  -6.000  -0.5999   0.01040   0.00442  -0.0139  0.9785  0.0411  -2.5082   0.0000   0.2199
  -5.500  -0.5452   0.00986   0.00391  -0.0140  0.9712  0.0458  -2.2593   0.0000   0.2179
  -5.000  -0.4930   0.00929   0.00344  -0.0134  0.9632  0.0616  -2.0260   0.0000   0.2166
  -4.500  -0.4426   0.00875   0.00303  -0.0124  0.9539  0.0905  -1.7982   0.0000   0.2161
  -4.000  -0.3931   0.00821   0.00266  -0.0112  0.9441  0.1310  -1.5859   0.0000   0.2158
  -3.500  -0.3442   0.00763   0.00233  -0.0099  0.9331  0.1945  -1.3869   0.0000   0.2157
  -3.000  -0.2965   0.00695   0.00200  -0.0084  0.9209  0.2888  -1.1969   0.0000   0.2163
  -2.000  -0.2085   0.00518   0.00142  -0.0040  0.8940  0.6161  -0.8709   0.0000   0.2260
  -1.500  -0.1579   0.00486   0.00131  -0.0028  0.8802  0.6887  -0.7068   0.0000   0.2276
  -1.000  -0.1057   0.00467   0.00125  -0.0019  0.8645  0.7427  -0.5473   0.0000   0.2280
  -0.500  -0.0530   0.00457   0.00121  -0.0009  0.8416  0.7832  -0.4255   0.0000   0.2288
   0.000  -0.0000   0.00454   0.00118   0.0000  0.8132  0.8132  -0.3377   0.0000   0.4936
   0.500   0.0530   0.00457   0.00121   0.0009  0.7832  0.8416  -0.4255   0.0000   0.2288
   1.000   0.1057   0.00467   0.00125   0.0019  0.7427  0.8645  -0.5473   0.0000   0.2280
   1.500   0.1579   0.00486   0.00131   0.0028  0.6887  0.8802  -0.7068   0.0000   0.2276
   2.000   0.2085   0.00518   0.00142   0.0040  0.6161  0.8940  -0.8709   0.0000   0.2260
   2.500   0.2533   0.00594   0.00164   0.0062  0.4663  0.9078  -1.0319   0.0000   0.2206
   3.000   0.2965   0.00695   0.00200   0.0084  0.2888  0.9209  -1.1970   0.0000   0.2163
   3.500   0.3442   0.00763   0.00233   0.0099  0.1945  0.9331  -1.3869   0.0000   0.2158
   4.000   0.3931   0.00821   0.00266   0.0112  0.1309  0.9441  -1.5860   0.0000   0.2159
   4.500   0.4426   0.00875   0.00303   0.0124  0.0905  0.9539  -1.7982   0.0000   0.2161
   5.000   0.4930   0.00929   0.00344   0.0134  0.0616  0.9632  -2.0261   0.0000   0.2166
   5.500   0.5453   0.00986   0.00391   0.0139  0.0458  0.9712  -2.2595   0.0000   0.2179
   6.000   0.6000   0.01040   0.00442   0.0139  0.0411  0.9785  -2.5083   0.0000   0.2199
   6.500   0.6645   0.01102   0.00507   0.0116  0.0384  0.9811  -2.7825   0.0000   0.2253
   7.000   0.7288   0.01164   0.00571   0.0092  0.0364  0.9838  -3.1030   0.0000   0.2297
   7.500   0.7866   0.01265   0.00675   0.0080  0.0341  0.9878  -3.4325   0.0000   0.2317
   8.000   0.8516   0.01326   0.00741   0.0054  0.0329  0.9897  -3.8365   0.0000   0.2351
   8.500   0.9131   0.01402   0.00822   0.0035  0.0314  0.9925  -4.2833   0.0000   0.2372
   9.000   0.9699   0.01508   0.00930   0.0022  0.0295  0.9956  -4.7330   0.0000   0.2381
   9.500   1.0296   0.01608   0.01040   0.0004  0.0284  0.9977  -5.2143   0.0000   0.2394
  10.000   1.0896   0.01680   0.01118  -0.0014  0.0269  0.9998  -5.7464   0.0000   0.2405
  10.500   1.1177   0.01741   0.01183   0.0034  0.0259  1.0000  -6.1849   0.0000   0.2355
  11.000   1.1299   0.01878   0.01328   0.0111  0.0247  1.0000  -6.5311   0.0000   0.2281
  11.500   1.1573   0.01926   0.01386   0.0161  0.0241  1.0000  -6.9877   0.0000   0.2233
  12.000   1.1826   0.01987   0.01457   0.0213  0.0231  1.0000  -7.4438   0.0000   0.2184
  12.500   1.2122   0.02053   0.01528   0.0254  0.0221  1.0000  -7.9429   0.0000   0.2147
  13.000   1.2340   0.02210   0.01692   0.0299  0.0209  1.0000  -8.3873   0.0000   0.2107
  13.500   1.2700   0.02287   0.01783   0.0322  0.0200  1.0000  -8.9442   0.0000   0.2087
  14.000   1.3050   0.02375   0.01880   0.0343  0.0189  1.0000  -9.5139   0.0000   0.2069
  14.500   1.3322   0.02522   0.02031   0.0370  0.0178  1.0000  -10.0377   0.0000   0.2045
  15.000   1.3581   0.02691   0.02216   0.0395  0.0169  1.0000  -10.5501   0.0000   0.2022
  15.500   1.3837   0.02867   0.02405   0.0416  0.0160  1.0000  -11.0756   0.0000   0.2003
  16.000   1.4024   0.03108   0.02655   0.0438  0.0151  1.0000  -11.5540   0.0000   0.1981
  16.500   1.4119   0.03447   0.03012   0.0458  0.0144  1.0000  -11.9596   0.0000   0.1958
  17.000   1.4222   0.03807   0.03392   0.0470  0.0137  1.0000  -12.3839   0.0000   0.1941
  17.500   1.4265   0.04260   0.03862   0.0474  0.0131  1.0000  -12.7545   0.0000   0.1927
  18.000   1.4183   0.04906   0.04526   0.0464  0.0126  1.0000  -12.9959   0.0000   0.1920
  18.500   1.3880   0.05947   0.05594   0.0424  0.0122  1.0000  -12.9784   0.0000   0.1926
  19.000   1.3475   0.07308   0.06987   0.0354  0.0121  1.0000  -12.7985   0.0000   0.1955
  19.500   1.2675   0.09512   0.09230   0.0232  0.0122  1.0000  -12.0663   0.0000   0.2021
  20.000   1.1655   0.12193   0.11952   0.0087  0.0127  1.0000  -10.9169   0.0000   0.2117
  20.500   1.0624   0.15112   0.14904  -0.0083  0.0129  1.0000  -9.4999   0.0000   0.2261
  21.000   0.9885   0.17741   0.17554  -0.0244  0.0125  1.0000  -8.2039   0.0000   0.2425
  22.000   0.8401   0.25816   0.25642  -0.0647  0.0089  1.0000  -2.2507   0.0000   0.2988
  22.500   0.8565   0.26348   0.26175  -0.0690  0.0084  1.0000  -2.3492   0.0000   0.3012
  23.000   0.8733   0.26785   0.26613  -0.0729  0.0082  1.0000  -2.5317   0.0000   0.3029
  23.500   0.8871   0.27753   0.27581  -0.0788  0.0075  1.0000  -2.1803   0.0000   0.3077
  24.000   0.9031   0.28333   0.28161  -0.0834  0.0070  1.0000  -2.2322   0.0000   0.3102
  24.500   0.9190   0.28831   0.28660  -0.0880  0.0067  1.0000  -2.3453   0.0000   0.3123
  25.000   0.9347   0.29265   0.29096  -0.0922  0.0066  1.0000  -2.5142   0.0000   0.3138
  25.500   0.9497   0.30188   0.30018  -0.0981  0.0059  1.0000  -2.1720   0.0000   0.3179
  26.000   0.9651   0.30737   0.30568  -0.1030  0.0055  1.0000  -2.2028   0.0000   0.3201
  26.500   0.9802   0.31221   0.31053  -0.1078  0.0053  1.0000  -2.2867   0.0000   0.3220
  27.000   0.9947   0.31651   0.31484  -0.1125  0.0052  1.0000  -2.4201   0.0000   0.3236
  27.500   1.0089   0.32236   0.32070  -0.1175  0.0051  1.0000  -2.4059   0.0000   0.3258
  28.000   1.0246   0.33019   0.32853  -0.1233  0.0045  1.0000  -2.1758   0.0000   0.3287
  28.500   1.0388   0.33510   0.33345  -0.1283  0.0042  1.0000  -2.2325   0.0000   0.3306
  29.000   1.0525   0.33956   0.33792  -0.1334  0.0041  1.0000  -2.3257   0.0000   0.3322
  29.500   1.0655   0.34355   0.34193  -0.1383  0.0040  1.0000  -2.4634   0.0000   0.3336
  30.000   1.0793   0.35006   0.34844  -0.1439  0.0039  1.0000  -2.3147   0.0000   0.3359
  30.500   1.0940   0.35658   0.35497  -0.1494  0.0035  1.0000  -2.1828   0.0000   0.3379
  31.000   1.1070   0.36135   0.35975  -0.1548  0.0032  1.0000  -2.2184   0.0000   0.3396
  31.500   1.1193   0.36564   0.36406  -0.1601  0.0031  1.0000  -2.2936   0.0000   0.3411
  32.000   1.1308   0.36950   0.36793  -0.1654  0.0030  1.0000  -2.4052   0.0000   0.3425


