xflr5 v6.33

 Calculated polar for: NACA 0012 v1

 1 1 Reynolds number fixed          Mach number fixed         

 xtrf =   1.000 (top)        1.000 (bottom)
 Mach =   0.000     Re =     3.100 e 6     Ncrit =   9.000

  alpha     CL        CD       CDp       Cm    Top Xtr Bot Xtr   Cpmin    Chinge    XCp    
 ------- -------- --------- --------- -------- ------- ------- -------- --------- ---------
 -26.500  -0.6624   0.28289   0.28205   0.0695  1.0000  0.0034  -1.5177   0.0000   0.3305
 -26.000  -0.6568   0.27785   0.27701   0.0669  1.0000  0.0037  -1.4952   0.0000   0.3283
 -25.000  -1.1386   0.23167   0.23037   0.0930  1.0000  0.0071  -8.8190   0.0000   0.2901
 -24.500  -1.1401   0.22243   0.22109   0.0850  1.0000  0.0075  -9.0125   0.0000   0.2841
 -24.000  -1.1458   0.21220   0.21079   0.0765  1.0000  0.0077  -9.2552   0.0000   0.2772
 -23.500  -1.1553   0.20117   0.19968   0.0674  1.0000  0.0080  -9.5298   0.0000   0.2698
 -23.000  -1.1718   0.18877   0.18716   0.0576  1.0000  0.0082  -9.8794   0.0000   0.2615
 -22.500  -1.1984   0.17445   0.17270   0.0465  1.0000  0.0083  -10.3342   0.0000   0.2521
 -22.000  -1.2495   0.15553   0.15359   0.0326  1.0000  0.0083  -11.0790   0.0000   0.2402
 -21.500  -1.3412   0.12991   0.12766   0.0152  1.0000  0.0083  -12.2300   0.0000   0.2265
 -21.000  -1.4535   0.10257   0.09995  -0.0010  1.0000  0.0082  -13.4161   0.0000   0.2156
 -20.500  -1.5441   0.08067   0.07770  -0.0126  1.0000  0.0081  -14.1884   0.0000   0.2095
 -20.000  -1.6024   0.06486   0.06162  -0.0205  1.0000  0.0081  -14.5340   0.0000   0.2063
 -19.500  -1.6365   0.05341   0.04993  -0.0257  1.0000  0.0082  -14.5876   0.0000   0.2048
 -19.000  -1.6534   0.04490   0.04122  -0.0291  1.0000  0.0083  -14.4485   0.0000   0.2043
 -18.500  -1.6582   0.03849   0.03464  -0.0309  1.0000  0.0084  -14.1785   0.0000   0.2045
 -18.000  -1.6540   0.03365   0.02965  -0.0314  1.0000  0.0085  -13.8170   0.0000   0.2054
 -17.500  -1.6522   0.02916   0.02499  -0.0306  1.0000  0.0087  -13.4768   0.0000   0.2071
 -17.000  -1.6427   0.02591   0.02162  -0.0285  1.0000  0.0091  -13.0701   0.0000   0.2094
 -16.500  -1.6258   0.02360   0.01920  -0.0258  1.0000  0.0094  -12.6127   0.0000   0.2119
 -16.000  -1.6043   0.02183   0.01734  -0.0226  1.0000  0.0097  -12.1232   0.0000   0.2147
 -15.500  -1.5793   0.02043   0.01585  -0.0192  1.0000  0.0099  -11.6137   0.0000   0.2176
 -15.000  -1.5510   0.01931   0.01465  -0.0156  1.0000  0.0102  -11.0880   0.0000   0.2206
 -14.500  -1.5176   0.01806   0.01332  -0.0129  1.0000  0.0107  -10.5479   0.0000   0.2231
 -14.000  -1.4789   0.01700   0.01222  -0.0108  1.0000  0.0113  -9.9795   0.0000   0.2252
 -13.500  -1.4365   0.01613   0.01130  -0.0092  1.0000  0.0118  -9.3997   0.0000   0.2269
 -13.000  -1.3922   0.01533   0.01046  -0.0078  1.0000  0.0122  -8.8241   0.0000   0.2286
 -12.500  -1.3484   0.01441   0.00950  -0.0063  1.0000  0.0132  -8.2710   0.0000   0.2304
 -12.000  -1.3019   0.01370   0.00876  -0.0050  1.0000  0.0139  -7.7324   0.0000   0.2319
 -11.500  -1.2551   0.01300   0.00803  -0.0038  1.0000  0.0148  -7.2140   0.0000   0.2336
 -11.000  -1.2084   0.01235   0.00737  -0.0024  1.0000  0.0159  -6.7076   0.0000   0.2353
 -10.500  -1.1625   0.01177   0.00677  -0.0007  1.0000  0.0171  -6.2217   0.0000   0.2374
 -10.000  -1.1180   0.01123   0.00622   0.0013  1.0000  0.0184  -5.7558   0.0000   0.2398
  -9.500  -1.0751   0.01071   0.00570   0.0037  1.0000  0.0200  -5.3233   0.0000   0.2428
  -9.000  -1.0208   0.01021   0.00520   0.0037  0.9992  0.0221  -4.8665   0.0000   0.2436
  -8.500  -0.9575   0.00969   0.00470   0.0018  0.9975  0.0248  -4.3913   0.0000   0.2424
  -8.000  -0.8931   0.00919   0.00424  -0.0004  0.9960  0.0285  -3.9404   0.0000   0.2407
  -7.500  -0.8291   0.00873   0.00381  -0.0024  0.9937  0.0330  -3.5216   0.0000   0.2387
  -7.000  -0.7669   0.00827   0.00341  -0.0040  0.9895  0.0392  -3.1305   0.0000   0.2369
  -6.500  -0.7094   0.00787   0.00306  -0.0043  0.9807  0.0468  -2.7851   0.0000   0.2364
  -6.000  -0.6562   0.00750   0.00273  -0.0037  0.9668  0.0571  -2.4718   0.0000   0.2372
  -5.500  -0.6038   0.00715   0.00243  -0.0029  0.9487  0.0707  -2.1836   0.0000   0.2385
  -5.000  -0.5507   0.00682   0.00214  -0.0022  0.9262  0.0891  -1.9173   0.0000   0.2397
  -4.500  -0.4970   0.00651   0.00186  -0.0016  0.8990  0.1135  -1.6709   0.0000   0.2407
  -4.000  -0.4429   0.00622   0.00162  -0.0012  0.8666  0.1445  -1.4461   0.0000   0.2416
  -3.500  -0.3885   0.00595   0.00140  -0.0008  0.8292  0.1823  -1.2432   0.0000   0.2424
  -3.000  -0.3338   0.00572   0.00121  -0.0006  0.7880  0.2247  -1.0637   0.0000   0.2431
  -2.500  -0.2787   0.00553   0.00106  -0.0004  0.7436  0.2703  -0.9054   0.0000   0.2437
  -2.000  -0.2233   0.00538   0.00094  -0.0002  0.6978  0.3175  -0.7693   0.0000   0.2442
  -1.500  -0.1677   0.00526   0.00085  -0.0001  0.6511  0.3657  -0.6543   0.0000   0.2446
  -1.000  -0.1119   0.00518   0.00079  -0.0001  0.6041  0.4137  -0.5586   0.0000   0.2449
  -0.500  -0.0560   0.00513   0.00075  -0.0000  0.5567  0.4616  -0.4795   0.0000   0.2451
   0.000  -0.0000   0.00512   0.00074  -0.0000  0.5093  0.5093  -0.4131   0.0000   0.3315
   0.500   0.0560   0.00513   0.00075   0.0000  0.4617  0.5567  -0.4795   0.0000   0.2451
   1.000   0.1119   0.00518   0.00079   0.0001  0.4137  0.6041  -0.5586   0.0000   0.2449
   1.500   0.1677   0.00526   0.00085   0.0001  0.3657  0.6511  -0.6543   0.0000   0.2446
   2.000   0.2233   0.00538   0.00094   0.0002  0.3175  0.6978  -0.7693   0.0000   0.2442
   2.500   0.2787   0.00553   0.00106   0.0004  0.2703  0.7436  -0.9054   0.0000   0.2438
   3.000   0.3338   0.00572   0.00121   0.0006  0.2247  0.7880  -1.0637   0.0000   0.2432
   3.500   0.3885   0.00595   0.00140   0.0009  0.1823  0.8292  -1.2432   0.0000   0.2424
   4.000   0.4430   0.00622   0.00162   0.0013  0.1445  0.8666  -1.4462   0.0000   0.2416
   4.500   0.4971   0.00651   0.00186   0.0017  0.1135  0.8990  -1.6710   0.0000   0.2407
   5.000   0.5508   0.00682   0.00214   0.0023  0.0891  0.9262  -1.9174   0.0000   0.2397
   5.500   0.6038   0.00715   0.00243   0.0030  0.0707  0.9487  -2.1837   0.0000   0.2386
   6.000   0.6562   0.00750   0.00273   0.0039  0.0570  0.9668  -2.4719   0.0000   0.2373
   6.500   0.7095   0.00787   0.00306   0.0045  0.0468  0.9807  -2.7852   0.0000   0.2364
   7.000   0.7669   0.00827   0.00341   0.0042  0.0392  0.9895  -3.1306   0.0000   0.2369
   7.500   0.8291   0.00873   0.00381   0.0026  0.0330  0.9937  -3.5217   0.0000   0.2387
   8.000   0.8932   0.00919   0.00424   0.0007  0.0285  0.9960  -3.9406   0.0000   0.2407
   8.500   0.9575   0.00969   0.00470  -0.0014  0.0248  0.9975  -4.3916   0.0000   0.2424
   9.000   1.0208   0.01021   0.00520  -0.0033  0.0221  0.9992  -4.8668   0.0000   0.2436
   9.500   1.0750   0.01071   0.00570  -0.0033  0.0200  1.0000  -5.3229   0.0000   0.2428
  10.000   1.1180   0.01122   0.00622  -0.0008  0.0184  1.0000  -5.7555   0.0000   0.2398
  10.500   1.1625   0.01177   0.00677   0.0013  0.0171  1.0000  -6.2216   0.0000   0.2374
  11.000   1.2084   0.01235   0.00737   0.0030  0.0159  1.0000  -6.7078   0.0000   0.2353
  11.500   1.2552   0.01300   0.00803   0.0044  0.0148  1.0000  -7.2144   0.0000   0.2336
  12.000   1.3020   0.01370   0.00876   0.0057  0.0139  1.0000  -7.7330   0.0000   0.2320
  12.500   1.3485   0.01441   0.00950   0.0070  0.0132  1.0000  -8.2718   0.0000   0.2304
  13.000   1.3923   0.01533   0.01046   0.0085  0.0122  1.0000  -8.8250   0.0000   0.2286
  13.500   1.4367   0.01613   0.01130   0.0100  0.0118  1.0000  -9.4010   0.0000   0.2270
  14.000   1.4791   0.01700   0.01222   0.0117  0.0113  1.0000  -9.9810   0.0000   0.2252
  14.500   1.5179   0.01806   0.01332   0.0138  0.0107  1.0000  -10.5498   0.0000   0.2232
  15.000   1.5514   0.01931   0.01465   0.0165  0.0102  1.0000  -11.0909   0.0000   0.2207
  15.500   1.5799   0.02043   0.01585   0.0201  0.0099  1.0000  -11.6175   0.0000   0.2177
  16.000   1.6050   0.02182   0.01734   0.0236  0.0097  1.0000  -12.1278   0.0000   0.2148
  16.500   1.6266   0.02359   0.01920   0.0268  0.0094  1.0000  -12.6181   0.0000   0.2120
  17.000   1.6436   0.02590   0.02161   0.0295  0.0091  1.0000  -13.0763   0.0000   0.2095
  17.500   1.6531   0.02915   0.02498   0.0316  0.0087  1.0000  -13.4839   0.0000   0.2072
  18.000   1.6553   0.03361   0.02961   0.0325  0.0085  1.0000  -13.8271   0.0000   0.2055
  18.500   1.6597   0.03844   0.03459   0.0320  0.0084  1.0000  -14.1905   0.0000   0.2046
  19.000   1.6552   0.04483   0.04115   0.0302  0.0083  1.0000  -14.4626   0.0000   0.2044
  19.500   1.6385   0.05331   0.04983   0.0269  0.0082  1.0000  -14.6046   0.0000   0.2049
  20.000   1.6047   0.06473   0.06148   0.0216  0.0081  1.0000  -14.5538   0.0000   0.2065
  20.500   1.5466   0.08051   0.07754   0.0137  0.0081  1.0000  -14.2110   0.0000   0.2096
  21.000   1.4561   0.10242   0.09979   0.0020  0.0082  1.0000  -13.4399   0.0000   0.2157
  21.500   1.3434   0.12983   0.12757  -0.0144  0.0083  1.0000  -12.2503   0.0000   0.2265
  22.000   1.2510   0.15560   0.15366  -0.0319  0.0083  1.0000  -11.0915   0.0000   0.2404
  22.500   1.1997   0.17460   0.17286  -0.0460  0.0083  1.0000  -10.3428   0.0000   0.2522
  23.000   1.1731   0.18896   0.18735  -0.0571  0.0082  1.0000  -9.8870   0.0000   0.2616
  23.500   1.1565   0.20142   0.19992  -0.0671  0.0080  1.0000  -9.5364   0.0000   0.2700
  24.000   1.1470   0.21251   0.21110  -0.0762  0.0077  1.0000  -9.2616   0.0000   0.2774
  24.500   1.1414   0.22283   0.22148  -0.0847  0.0075  1.0000  -9.0182   0.0000   0.2842
  25.000   1.1399   0.23215   0.23085  -0.0927  0.0071  1.0000  -8.8265   0.0000   0.2903
  25.500   1.1394   0.24141   0.24018  -0.1008  0.0068  1.0000  -8.6033   0.0000   0.2964


