xflr5 v6.33

 Calculated polar for: NACA 0012-64

 1 1 Reynolds number fixed          Mach number fixed         

 xtrf =   1.000 (top)        1.000 (bottom)
 Mach =   0.000     Re =     2.000 e 6     Ncrit =   9.000

  alpha     CL        CD       CDp       Cm    Top Xtr Bot Xtr   Cpmin    Chinge    XCp    
 ------- -------- --------- --------- -------- ------- ------- -------- --------- ---------
 -26.500  -0.9791   0.31124   0.30999   0.1078  1.0000  0.0035  -2.2967   0.0000   0.3222
 -25.500  -0.5917   0.25819   0.25711   0.0413  1.0000  0.0043  -1.4104   0.0000   0.2972
 -25.000  -0.5850   0.25313   0.25205   0.0386  1.0000  0.0047  -1.3913   0.0000   0.2941
 -23.000  -0.9704   0.22042   0.21903   0.0536  1.0000  0.0080  -7.4393   0.0000   0.2694
 -22.500  -0.9856   0.20595   0.20450   0.0438  1.0000  0.0087  -8.0154   0.0000   0.2592
 -22.000  -1.0160   0.18834   0.18679   0.0321  1.0000  0.0093  -8.7927   0.0000   0.2469
 -21.500  -1.0793   0.16430   0.16254   0.0165  1.0000  0.0095  -10.0040   0.0000   0.2312
 -21.000  -1.3104   0.11029   0.10791  -0.0156  1.0000  0.0086  -13.3892   0.0000   0.2047
 -20.500  -1.4284   0.08174   0.07889  -0.0312  1.0000  0.0082  -14.6872   0.0000   0.1962
 -20.000  -1.4903   0.06455   0.06135  -0.0404  1.0000  0.0082  -15.1324   0.0000   0.1926
 -19.500  -1.5280   0.05280   0.04933  -0.0453  1.0000  0.0084  -15.2246   0.0000   0.1915
 -19.000  -1.5477   0.04474   0.04105  -0.0472  1.0000  0.0087  -15.0815   0.0000   0.1921
 -18.500  -1.5550   0.03895   0.03507  -0.0472  1.0000  0.0091  -14.7952   0.0000   0.1936
 -18.000  -1.5534   0.03453   0.03049  -0.0460  1.0000  0.0094  -14.4127   0.0000   0.1955
 -17.500  -1.5442   0.03113   0.02693  -0.0442  1.0000  0.0098  -13.9566   0.0000   0.1976
 -17.000  -1.5326   0.02817   0.02381  -0.0418  1.0000  0.0103  -13.4827   0.0000   0.2001
 -16.500  -1.5187   0.02557   0.02110  -0.0388  1.0000  0.0111  -12.9910   0.0000   0.2029
 -16.000  -1.4979   0.02360   0.01903  -0.0359  1.0000  0.0118  -12.4433   0.0000   0.2055
 -15.500  -1.4743   0.02190   0.01721  -0.0327  1.0000  0.0126  -11.9043   0.0000   0.2082
 -15.000  -1.4474   0.02047   0.01573  -0.0297  1.0000  0.0138  -11.3448   0.0000   0.2109
 -14.500  -1.4160   0.01938   0.01455  -0.0268  1.0000  0.0146  -10.7619   0.0000   0.2134
 -14.000  -1.3857   0.01827   0.01339  -0.0235  1.0000  0.0160  -10.1994   0.0000   0.2162
 -13.500  -1.3524   0.01748   0.01255  -0.0204  1.0000  0.0170  -9.6230   0.0000   0.2190
 -13.000  -1.3224   0.01682   0.01182  -0.0162  1.0000  0.0178  -9.0817   0.0000   0.2226
 -12.500  -1.2946   0.01612   0.01110  -0.0114  1.0000  0.0190  -8.5666   0.0000   0.2268
 -12.000  -1.2659   0.01571   0.01067  -0.0065  1.0000  0.0200  -8.0522   0.0000   0.2312
 -11.500  -1.2339   0.01532   0.01024  -0.0023  0.9998  0.0207  -7.5339   0.0000   0.2352
 -11.000  -1.1780   0.01443   0.00930  -0.0034  0.9982  0.0220  -6.9066   0.0000   0.2349
 -10.500  -1.1187   0.01382   0.00869  -0.0051  0.9966  0.0231  -6.2774   0.0000   0.2340
 -10.000  -1.0583   0.01324   0.00808  -0.0069  0.9953  0.0241  -5.6791   0.0000   0.2327
  -9.500  -0.9988   0.01281   0.00762  -0.0083  0.9930  0.0247  -5.1480   0.0000   0.2315
  -9.000  -0.9418   0.01185   0.00661  -0.0095  0.9905  0.0264  -4.6820   0.0000   0.2304
  -8.500  -0.8793   0.01127   0.00603  -0.0116  0.9889  0.0276  -4.2025   0.0000   0.2278
  -8.000  -0.8188   0.01076   0.00550  -0.0131  0.9863  0.0287  -3.7699   0.0000   0.2254
  -7.500  -0.7643   0.01019   0.00490  -0.0133  0.9806  0.0299  -3.4010   0.0000   0.2245
  -7.000  -0.7132   0.00965   0.00434  -0.0126  0.9733  0.0315  -3.0927   0.0000   0.2248
  -6.500  -0.6628   0.00923   0.00390  -0.0116  0.9650  0.0328  -2.8195   0.0000   0.2253
  -6.000  -0.6119   0.00888   0.00352  -0.0107  0.9563  0.0340  -2.5616   0.0000   0.2258
  -5.000  -0.5093   0.00811   0.00275  -0.0090  0.9362  0.0421  -2.0738   0.0000   0.2263
  -4.500  -0.4580   0.00766   0.00241  -0.0082  0.9254  0.0637  -1.8402   0.0000   0.2263
  -4.000  -0.4057   0.00730   0.00213  -0.0076  0.9135  0.0867  -1.6152   0.0000   0.2258
  -3.500  -0.3533   0.00691   0.00187  -0.0070  0.9012  0.1212  -1.4073   0.0000   0.2248
  -3.000  -0.3014   0.00648   0.00163  -0.0064  0.8881  0.1771  -1.2079   0.0000   0.2237
  -2.500  -0.2497   0.00603   0.00141  -0.0057  0.8743  0.2473  -1.0269   0.0000   0.2223
  -1.500  -0.1552   0.00455   0.00094  -0.0027  0.8406  0.5541  -0.7047   0.0000   0.2278
  -1.000  -0.1043   0.00424   0.00083  -0.0017  0.8141  0.6366  -0.5472   0.0000   0.2293
  -0.500  -0.0524   0.00409   0.00077  -0.0008  0.7836  0.6971  -0.4255   0.0000   0.2301
   0.000  -0.0000   0.00400   0.00076   0.0000  0.7500  0.7500  -0.3383   0.0000   0.4824
   0.500   0.0524   0.00409   0.00077   0.0008  0.6971  0.7836  -0.4255   0.0000   0.2301
   1.000   0.1043   0.00424   0.00083   0.0017  0.6366  0.8141  -0.5472   0.0000   0.2293
   1.500   0.1552   0.00455   0.00094   0.0027  0.5540  0.8406  -0.7047   0.0000   0.2278
   2.500   0.2498   0.00603   0.00141   0.0057  0.2473  0.8743  -1.0270   0.0000   0.2223
   3.000   0.3014   0.00648   0.00163   0.0064  0.1771  0.8881  -1.2080   0.0000   0.2238
   3.500   0.3533   0.00691   0.00187   0.0070  0.1211  0.9012  -1.4074   0.0000   0.2249
   4.000   0.4057   0.00730   0.00213   0.0076  0.0867  0.9135  -1.6153   0.0000   0.2258
   4.500   0.4581   0.00766   0.00241   0.0082  0.0636  0.9254  -1.8403   0.0000   0.2264
   5.000   0.5094   0.00811   0.00275   0.0090  0.0421  0.9362  -2.0739   0.0000   0.2263
   6.000   0.6119   0.00888   0.00352   0.0107  0.0340  0.9563  -2.5618   0.0000   0.2258
   6.500   0.6629   0.00923   0.00390   0.0116  0.0328  0.9650  -2.8197   0.0000   0.2254
   7.000   0.7133   0.00965   0.00434   0.0125  0.0315  0.9733  -3.0930   0.0000   0.2248
   7.500   0.7644   0.01019   0.00490   0.0133  0.0299  0.9806  -3.4013   0.0000   0.2246
   8.000   0.8189   0.01076   0.00550   0.0131  0.0287  0.9863  -3.7702   0.0000   0.2254
   8.500   0.8795   0.01127   0.00603   0.0115  0.0276  0.9889  -4.2029   0.0000   0.2278
   9.000   0.9419   0.01185   0.00661   0.0094  0.0264  0.9905  -4.6825   0.0000   0.2304
   9.500   0.9989   0.01281   0.00762   0.0083  0.0247  0.9930  -5.1486   0.0000   0.2315
  10.000   1.0585   0.01324   0.00808   0.0068  0.0241  0.9954  -5.6799   0.0000   0.2328
  10.500   1.1189   0.01382   0.00869   0.0050  0.0231  0.9966  -6.2785   0.0000   0.2340
  11.000   1.1782   0.01443   0.00930   0.0034  0.0220  0.9982  -6.9078   0.0000   0.2350
  11.500   1.2342   0.01532   0.01024   0.0023  0.0207  0.9998  -7.5353   0.0000   0.2353
  12.000   1.2658   0.01570   0.01067   0.0066  0.0200  1.0000  -8.0516   0.0000   0.2312
  12.500   1.2947   0.01611   0.01110   0.0114  0.0190  1.0000  -8.5668   0.0000   0.2268
  13.000   1.3227   0.01682   0.01182   0.0161  0.0178  1.0000  -9.0835   0.0000   0.2227
  13.500   1.3529   0.01748   0.01255   0.0202  0.0170  1.0000  -9.6267   0.0000   0.2191
  14.000   1.3864   0.01826   0.01339   0.0234  0.0160  1.0000  -10.2038   0.0000   0.2163
  14.500   1.4168   0.01938   0.01454   0.0267  0.0146  1.0000  -10.7672   0.0000   0.2135
  15.000   1.4483   0.02047   0.01572   0.0295  0.0138  1.0000  -11.3509   0.0000   0.2110
  15.500   1.4752   0.02190   0.01721   0.0326  0.0126  1.0000  -11.9110   0.0000   0.2083
  16.000   1.4990   0.02359   0.01902   0.0357  0.0118  1.0000  -12.4514   0.0000   0.2057
  16.500   1.5199   0.02556   0.02109   0.0386  0.0111  1.0000  -13.0005   0.0000   0.2031
  17.000   1.5339   0.02816   0.02380   0.0416  0.0103  1.0000  -13.4926   0.0000   0.2003
  17.500   1.5458   0.03110   0.02690   0.0440  0.0098  1.0000  -13.9698   0.0000   0.1978
  18.000   1.5552   0.03450   0.03046   0.0458  0.0094  1.0000  -14.4275   0.0000   0.1957
  18.500   1.5569   0.03890   0.03503   0.0469  0.0090  1.0000  -14.8117   0.0000   0.1938
  19.000   1.5498   0.04469   0.04100   0.0469  0.0087  1.0000  -15.0991   0.0000   0.1923
  19.500   1.5301   0.05276   0.04929   0.0450  0.0084  1.0000  -15.2423   0.0000   0.1918
  20.000   1.4923   0.06455   0.06136   0.0400  0.0082  1.0000  -15.1481   0.0000   0.1928
  20.500   1.4302   0.08181   0.07896   0.0308  0.0082  1.0000  -14.7002   0.0000   0.1965
  21.000   1.3124   0.11037   0.10799   0.0152  0.0086  1.0000  -13.4028   0.0000   0.2051
  21.500   1.0806   0.16457   0.16282  -0.0169  0.0095  1.0000  -10.0074   0.0000   0.2316
  22.000   1.0174   0.18874   0.18719  -0.0326  0.0093  1.0000  -8.7947   0.0000   0.2474
  22.500   0.9872   0.20643   0.20497  -0.0443  0.0087  1.0000  -8.0205   0.0000   0.2596
  24.000   0.9061   0.27887   0.27760  -0.0828  0.0051  1.0000  -2.7966   0.0000   0.3085
  24.500   0.9205   0.28894   0.28767  -0.0886  0.0044  1.0000  -2.3923   0.0000   0.3129
  25.000   0.9363   0.29410   0.29284  -0.0933  0.0042  1.0000  -2.4964   0.0000   0.3150
  25.500   0.9518   0.29873   0.29747  -0.0980  0.0041  1.0000  -2.6456   0.0000   0.3170


