xflr5 v6.33

 Calculated polar for: NACA 0012 v1

 1 1 Reynolds number fixed          Mach number fixed         

 xtrf =   1.000 (top)        1.000 (bottom)
 Mach =   0.000     Re =     0.100 e 6     Ncrit =   9.000

  alpha     CL        CD       CDp       Cm    Top Xtr Bot Xtr   Cpmin    Chinge    XCp    
 ------- -------- --------- --------- -------- ------- ------- -------- --------- ---------
 -29.500  -0.6753   0.32260   0.31827   0.0803  1.0000  0.0322  -1.0053   0.0000   0.3412
 -28.500  -1.1126   0.32330   0.31794   0.1539  1.0000  0.0320  -2.3007   0.0000   0.3474
 -27.000  -1.0692   0.30937   0.30393   0.1382  1.0000  0.0361  -2.0684   0.0000   0.3421
 -26.500  -1.0542   0.30438   0.29892   0.1333  1.0000  0.0370  -1.9930   0.0000   0.3405
 -26.000  -1.0388   0.29962   0.29412   0.1286  1.0000  0.0388  -1.9361   0.0000   0.3391
 -25.500  -1.0243   0.29469   0.28919   0.1228  1.0000  0.0400  -1.9821   0.0000   0.3362
 -25.000  -1.0077   0.28963   0.28409   0.1188  1.0000  0.0419  -1.9177   0.0000   0.3354
 -24.500  -0.9931   0.28467   0.27912   0.1130  1.0000  0.0436  -1.9548   0.0000   0.3324
 -24.000  -0.9760   0.27943   0.27384   0.1091  1.0000  0.0455  -1.8858   0.0000   0.3315
 -23.500  -0.9619   0.27449   0.26891   0.1031  1.0000  0.0472  -1.9418   0.0000   0.3279
 -23.000  -0.9437   0.26894   0.26332   0.0997  1.0000  0.0494  -1.8711   0.0000   0.3274
 -22.500  -0.9286   0.26356   0.25793   0.0945  1.0000  0.0515  -1.8924   0.0000   0.3245
 -22.000  -0.9116   0.25829   0.25264   0.0902  1.0000  0.0543  -1.8605   0.0000   0.3226
 -21.500  -0.8954   0.25263   0.24697   0.0857  1.0000  0.0561  -1.8462   0.0000   0.3203
 -21.000  -0.8813   0.24747   0.24181   0.0802  1.0000  0.0591  -1.8784   0.0000   0.3165
 -20.500  -0.8623   0.24160   0.23591   0.0770  1.0000  0.0620  -1.8214   0.0000   0.3157
 -20.000  -0.8465   0.23583   0.23014   0.0725  1.0000  0.0647  -1.8241   0.0000   0.3128
 -19.500  -0.8351   0.23062   0.22495   0.0666  1.0000  0.0680  -1.8801   0.0000   0.3078
 -19.000  -0.8144   0.22437   0.21867   0.0640  1.0000  0.0715  -1.7970   0.0000   0.3074
 -18.500  -0.7980   0.21847   0.21276   0.0601  1.0000  0.0752  -1.7841   0.0000   0.3049
 -18.000  -0.7828   0.21243   0.20673   0.0558  1.0000  0.0788  -1.7891   0.0000   0.3017
 -17.500  -0.7697   0.20636   0.20067   0.0512  1.0000  0.0828  -1.8097   0.0000   0.2976
 -17.000  -0.7566   0.20035   0.19466   0.0469  1.0000  0.0875  -1.8155   0.0000   0.2938
 -16.500  -0.7426   0.19416   0.18848   0.0430  1.0000  0.0926  -1.8061   0.0000   0.2904
 -16.000  -0.7313   0.18797   0.18231   0.0387  1.0000  0.0976  -1.8280   0.0000   0.2862
 -15.500  -0.7176   0.18147   0.17582   0.0352  1.0000  0.1031  -1.8218   0.0000   0.2830
 -15.000  -0.7005   0.17486   0.16920   0.0326  1.0000  0.1093  -1.7816   0.0000   0.2812
 -14.500  -0.6875   0.16821   0.16257   0.0294  1.0000  0.1153  -1.7670   0.0000   0.2780
 -14.000  -0.6746   0.16160   0.15596   0.0265  1.0000  0.1225  -1.7573   0.0000   0.2751
 -13.500  -0.6709   0.15482   0.14922   0.0224  1.0000  0.1309  -1.7959   0.0000   0.2698
 -13.000  -0.6693   0.14717   0.14161   0.0180  1.0000  0.1378  -1.8428   0.0000   0.2640
 -12.500  -0.6499   0.14032   0.13475   0.0171  1.0000  0.1463  -1.7744   0.0000   0.2639
 -12.000  -0.6523   0.13240   0.12688   0.0129  1.0000  0.1560  -1.8286   0.0000   0.2579
 -11.500  -0.6529   0.12385   0.11837   0.0093  1.0000  0.1637  -1.8711   0.0000   0.2530
 -11.000  -0.6421   0.11627   0.11080   0.0080  1.0000  0.1724  -1.8464   0.0000   0.2517
 -10.500  -0.9943   0.04989   0.04260  -0.0240  1.0000  0.0763  -4.2634   0.0000   0.2147
 -10.000  -0.9829   0.04402   0.03612  -0.0202  1.0000  0.0795  -4.1555   0.0000   0.2187
  -9.500  -0.9626   0.03864   0.03000  -0.0165  1.0000  0.0835  -4.0267   0.0000   0.2226
  -9.000  -0.9294   0.03457   0.02546  -0.0137  1.0000  0.0899  -3.8265   0.0000   0.2255
  -8.500  -0.8915   0.03103   0.02148  -0.0112  1.0000  0.0984  -3.6018   0.0000   0.2281
  -8.000  -0.8485   0.02812   0.01843  -0.0093  1.0000  0.1098  -3.3520   0.0000   0.2303
  -7.500  -0.8058   0.02561   0.01579  -0.0071  1.0000  0.1254  -3.1072   0.0000   0.2329
  -7.000  -0.7633   0.02338   0.01374  -0.0049  1.0000  0.1463  -2.8579   0.0000   0.2357
  -6.500  -0.7235   0.02139   0.01190  -0.0022  1.0000  0.1771  -2.6275   0.0000   0.2396
  -6.000  -0.6863   0.01957   0.01043   0.0009  1.0000  0.2220  -2.4063   0.0000   0.2444
  -5.500  -0.6504   0.01798   0.00925   0.0043  1.0000  0.2875  -2.1919   0.0000   0.2501
  -5.000  -0.6142   0.01675   0.00842   0.0078  1.0000  0.3670  -1.9839   0.0000   0.2567
  -4.500  -0.5763   0.01585   0.00789   0.0112  1.0000  0.4471  -1.7787   0.0000   0.2639
  -4.000  -0.5368   0.01519   0.00754   0.0146  1.0000  0.5248  -1.5824   0.0000   0.2720
  -3.500  -0.4960   0.01471   0.00735   0.0180  1.0000  0.5992  -1.3988   0.0000   0.2814
  -3.000  -0.4548   0.01440   0.00730   0.0215  1.0000  0.6716  -1.2300   0.0000   0.2928
  -2.500  -0.4139   0.01429   0.00744   0.0253  1.0000  0.7420  -1.0773   0.0000   0.3070
  -2.000  -0.3739   0.01445   0.00779   0.0295  1.0000  0.8092  -0.9421   0.0000   0.3254
  -1.500  -0.3318   0.01491   0.00834   0.0335  1.0000  0.8749  -0.8204   0.0000   0.3478
  -1.000  -0.2596   0.01573   0.00913   0.0313  1.0000  0.9333  -0.6841   0.0000   0.3676
  -0.500  -0.1337   0.01659   0.00987   0.0173  1.0000  0.9713  -0.5301   0.0000   0.3764
   0.000  -0.0000   0.01693   0.01017  -0.0000  1.0000  1.0000  -0.4084   0.0000   0.3764
   0.500   0.1337   0.01659   0.00987  -0.0173  0.9712  1.0000  -0.5300   0.0000   0.3764
   1.000   0.2596   0.01573   0.00913  -0.0313  0.9333  1.0000  -0.6841   0.0000   0.3676
   1.500   0.3317   0.01491   0.00834  -0.0335  0.8750  1.0000  -0.8204   0.0000   0.3478
   2.000   0.3739   0.01445   0.00779  -0.0295  0.8092  1.0000  -0.9420   0.0000   0.3254
   2.500   0.4139   0.01429   0.00744  -0.0252  0.7420  1.0000  -1.0772   0.0000   0.3070
   3.000   0.4547   0.01440   0.00730  -0.0214  0.6717  1.0000  -1.2299   0.0000   0.2928
   3.500   0.4959   0.01471   0.00735  -0.0179  0.5992  1.0000  -1.3987   0.0000   0.2814
   4.000   0.5367   0.01519   0.00754  -0.0145  0.5249  1.0000  -1.5823   0.0000   0.2720
   4.500   0.5763   0.01585   0.00789  -0.0111  0.4472  1.0000  -1.7785   0.0000   0.2639
   5.000   0.6141   0.01675   0.00842  -0.0077  0.3671  1.0000  -1.9838   0.0000   0.2566
   5.500   0.6504   0.01798   0.00925  -0.0042  0.2875  1.0000  -2.1918   0.0000   0.2501
   6.000   0.6862   0.01957   0.01042  -0.0008  0.2220  1.0000  -2.4063   0.0000   0.2444
   6.500   0.7235   0.02139   0.01190   0.0024  0.1771  1.0000  -2.6274   0.0000   0.2396
   7.000   0.7632   0.02338   0.01374   0.0051  0.1463  1.0000  -2.8579   0.0000   0.2357
   7.500   0.8058   0.02561   0.01579   0.0073  0.1254  1.0000  -3.1072   0.0000   0.2329
   8.000   0.8485   0.02812   0.01843   0.0095  0.1098  1.0000  -3.3520   0.0000   0.2303
   8.500   0.8915   0.03103   0.02147   0.0115  0.0984  1.0000  -3.6018   0.0000   0.2282
   9.000   0.9294   0.03457   0.02546   0.0140  0.0899  1.0000  -3.8266   0.0000   0.2255
   9.500   0.9627   0.03864   0.03000   0.0168  0.0835  1.0000  -4.0269   0.0000   0.2226
  10.000   0.9829   0.04402   0.03612   0.0206  0.0795  1.0000  -4.1557   0.0000   0.2187
  10.500   0.9944   0.04990   0.04261   0.0243  0.0763  1.0000  -4.2634   0.0000   0.2147
  11.000   0.9710   0.05823   0.05180   0.0294  0.0761  1.0000  -4.1739   0.0000   0.2084
  11.500   0.9296   0.06667   0.06074   0.0333  0.0768  1.0000  -4.0382   0.0000   0.2021
  15.000   0.5574   0.17787   0.17251  -0.0165  0.1151  1.0000  -1.4370   0.0000   0.2666
  15.500   0.5514   0.18270   0.17736  -0.0177  0.1098  1.0000  -1.3953   0.0000   0.2689
  16.000   0.5470   0.18646   0.18115  -0.0189  0.1045  1.0000  -1.3588   0.0000   0.2712
  16.500   0.5470   0.19009   0.18481  -0.0203  0.0989  1.0000  -1.3348   0.0000   0.2736
  17.000   0.5473   0.19415   0.18889  -0.0221  0.0943  1.0000  -1.3000   0.0000   0.2766
  17.500   0.5495   0.19843   0.19320  -0.0240  0.0902  1.0000  -1.2720   0.0000   0.2795
  18.000   0.5532   0.20287   0.19767  -0.0257  0.0857  1.0000  -1.2623   0.0000   0.2822
  18.500   0.5596   0.20759   0.20242  -0.0273  0.0817  1.0000  -1.2672   0.0000   0.2841
  19.000   0.5651   0.21220   0.20706  -0.0292  0.0776  1.0000  -1.2604   0.0000   0.2866
  19.500   0.5663   0.21659   0.21148  -0.0318  0.0739  1.0000  -1.2081   0.0000   0.2908
  20.000   0.5707   0.22145   0.21637  -0.0340  0.0705  1.0000  -1.1898   0.0000   0.2939
  20.500   0.5785   0.22647   0.22142  -0.0357  0.0677  1.0000  -1.2062   0.0000   0.2956
  21.000   0.5827   0.23118   0.22617  -0.0382  0.0643  1.0000  -1.1810   0.0000   0.2990
  21.500   0.5871   0.23622   0.23124  -0.0407  0.0617  1.0000  -1.1497   0.0000   0.3023
  22.000   0.5950   0.24133   0.23638  -0.0425  0.0590  1.0000  -1.1622   0.0000   0.3039
  22.500   0.5993   0.24625   0.24134  -0.0452  0.0562  1.0000  -1.1370   0.0000   0.3074
  23.000   0.6051   0.25142   0.24654  -0.0475  0.0544  1.0000  -1.1291   0.0000   0.3100
  23.500   0.6116   0.25656   0.25172  -0.0498  0.0516  1.0000  -1.1279   0.0000   0.3124
  24.000   0.6163   0.26190   0.25710  -0.0524  0.0496  1.0000  -1.0951   0.0000   0.3155
  24.500   0.6240   0.26716   0.26240  -0.0544  0.0473  1.0000  -1.1182   0.0000   0.3170
  25.000   0.6279   0.27252   0.26779  -0.0573  0.0459  1.0000  -1.0808   0.0000   0.3205
  25.500   0.6348   0.27781   0.27313  -0.0594  0.0437  1.0000  -1.0991   0.0000   0.3222
  26.000   0.6391   0.28332   0.27867  -0.0622  0.0421  1.0000  -1.0634   0.0000   0.3253
  26.500   0.6456   0.28871   0.28412  -0.0645  0.0401  1.0000  -1.0739   0.0000   0.3271
  27.000   0.6501   0.29430   0.28974  -0.0672  0.0391  1.0000  -1.0458   0.0000   0.3299
  27.500   0.6554   0.29974   0.29523  -0.0698  0.0373  1.0000  -1.0453   0.0000   0.3321
  28.000   0.6608   0.30534   0.30086  -0.0722  0.0362  1.0000  -1.0492   0.0000   0.3341
  28.500   0.6653   0.31090   0.30648  -0.0749  0.0344  1.0000  -1.0251   0.0000   0.3367
  30.000   1.1562   0.33903   0.33378  -0.1702  0.0287  1.0000  -2.4886   0.0000   0.3520
  30.500   1.1695   0.34332   0.33811  -0.1752  0.0274  1.0000  -2.5620   0.0000   0.3531
  31.000   1.1823   0.34786   0.34268  -0.1804  0.0268  1.0000  -2.6388   0.0000   0.3544
  31.500   1.1951   0.35228   0.34713  -0.1862  0.0258  1.0000  -2.7200   0.0000   0.3561
  32.000   1.2074   0.35635   0.35125  -0.1915  0.0248  1.0000  -2.7962   0.0000   0.3573
  33.000   0.7016   0.36159   0.35760  -0.0984  0.0246  1.0000  -0.9702   0.0000   0.3553
  33.500   0.7046   0.36723   0.36328  -0.1009  0.0239  1.0000  -0.9703   0.0000   0.3571
  34.000   0.7072   0.37295   0.36905  -0.1037  0.0232  1.0000  -0.9440   0.0000   0.3593
  34.500   0.7099   0.37850   0.37466  -0.1063  0.0222  1.0000  -0.9352   0.0000   0.3612
  35.000   0.7124   0.38385   0.38006  -0.1088  0.0214  1.0000  -0.9541   0.0000   0.3627
  35.500   0.7143   0.38956   0.38581  -0.1116  0.0210  1.0000  -0.9291   0.0000   0.3650
  36.000   0.7162   0.39506   0.39136  -0.1143  0.0201  1.0000  -0.9200   0.0000   0.3669
  36.500   0.7180   0.40031   0.39668  -0.1169  0.0192  1.0000  -0.9224   0.0000   0.3686
  37.500   0.7206   0.41113   0.40759  -0.1222  0.0184  1.0000  -0.8924   0.0000   0.3724
  38.000   0.7216   0.41649   0.41300  -0.1249  0.0176  1.0000  -0.8894   0.0000   0.3742
  38.500   0.7224   0.42148   0.41805  -0.1275  0.0168  1.0000  -0.8960   0.0000   0.3759
  41.500   0.7219   0.45117   0.44805  -0.1432  0.0141  1.0000  -0.8562   0.0000   0.3865
  42.000   0.7211   0.45596   0.45289  -0.1458  0.0137  1.0000  -0.8422   0.0000   0.3883
  42.500   0.7201   0.46047   0.45746  -0.1483  0.0131  1.0000  -0.8329   0.0000   0.3900
  43.000   0.7187   0.46476   0.46180  -0.1509  0.0126  1.0000  -0.8269   0.0000   0.3917
  43.500   0.7170   0.46870   0.46580  -0.1534  0.0122  1.0000  -0.8402   0.0000   0.3933
  44.000   0.7153   0.47332   0.47046  -0.1560  0.0120  1.0000  -0.8244   0.0000   0.3951
  44.500   0.7134   0.47742   0.47462  -0.1585  0.0117  1.0000  -0.8127   0.0000   0.3969
  45.000   0.7112   0.48140   0.47866  -0.1610  0.0112  1.0000  -0.8043   0.0000   0.3985
  45.500   0.7088   0.48512   0.48243  -0.1635  0.0108  1.0000  -0.7977   0.0000   0.4002
  46.000   0.7061   0.48854   0.48590  -0.1660  0.0104  1.0000  -0.8012   0.0000   0.4019


