xflr5 v6.33

 Calculated polar for: NACA 0012 v1

 1 1 Reynolds number fixed          Mach number fixed         

 xtrf =   1.000 (top)        1.000 (bottom)
 Mach =   0.000     Re =     2.200 e 6     Ncrit =   9.000

  alpha     CL        CD       CDp       Cm    Top Xtr Bot Xtr   Cpmin    Chinge    XCp    
 ------- -------- --------- --------- -------- ------- ------- -------- --------- ---------
 -27.500  -0.6693   0.29571   0.29474   0.0743  1.0000  0.0037  -1.3433   0.0000   0.3355
 -24.500  -1.1068   0.23184   0.23048   0.0918  1.0000  0.0081  -8.0642   0.0000   0.2934
 -24.000  -1.1293   0.21609   0.21456   0.0795  1.0000  0.0084  -8.8363   0.0000   0.2812
 -23.500  -1.1350   0.20591   0.20430   0.0711  1.0000  0.0087  -9.0683   0.0000   0.2744
 -23.000  -1.1413   0.19578   0.19411   0.0629  1.0000  0.0090  -9.2574   0.0000   0.2678
 -22.500  -1.1533   0.18446   0.18269   0.0540  1.0000  0.0093  -9.5056   0.0000   0.2605
 -22.000  -1.1724   0.17177   0.16989   0.0444  1.0000  0.0094  -9.8206   0.0000   0.2525
 -21.500  -1.2029   0.15704   0.15501   0.0337  1.0000  0.0096  -10.2454   0.0000   0.2437
 -21.000  -1.2525   0.13905   0.13682   0.0215  1.0000  0.0096  -10.8499   0.0000   0.2338
 -20.500  -1.3305   0.11666   0.11415   0.0076  1.0000  0.0096  -11.6943   0.0000   0.2234
 -20.000  -1.4242   0.09297   0.09011  -0.0055  1.0000  0.0094  -12.5716   0.0000   0.2150
 -19.500  -1.5000   0.07352   0.07034  -0.0155  1.0000  0.0094  -13.1430   0.0000   0.2098
 -19.000  -1.5478   0.05934   0.05589  -0.0226  1.0000  0.0094  -13.3656   0.0000   0.2070
 -18.500  -1.5741   0.04902   0.04534  -0.0272  1.0000  0.0095  -13.3410   0.0000   0.2056
 -18.000  -1.5852   0.04139   0.03751  -0.0301  1.0000  0.0097  -13.1524   0.0000   0.2053
 -17.500  -1.5858   0.03569   0.03163  -0.0312  1.0000  0.0099  -12.8555   0.0000   0.2058
 -17.000  -1.5785   0.03144   0.02722  -0.0310  1.0000  0.0101  -12.4939   0.0000   0.2070
 -16.500  -1.5647   0.02828   0.02391  -0.0298  1.0000  0.0102  -12.0821   0.0000   0.2087
 -16.000  -1.5580   0.02499   0.02046  -0.0269  1.0000  0.0106  -11.7334   0.0000   0.2115
 -15.500  -1.5400   0.02289   0.01825  -0.0237  1.0000  0.0110  -11.2900   0.0000   0.2144
 -15.000  -1.5165   0.02133   0.01660  -0.0202  1.0000  0.0114  -10.8093   0.0000   0.2174
 -14.500  -1.4890   0.02011   0.01529  -0.0166  1.0000  0.0119  -10.3082   0.0000   0.2205
 -14.000  -1.4544   0.01898   0.01407  -0.0141  1.0000  0.0123  -9.7750   0.0000   0.2229
 -13.500  -1.4184   0.01769   0.01272  -0.0117  1.0000  0.0130  -9.2502   0.0000   0.2252
 -13.000  -1.3770   0.01674   0.01170  -0.0099  1.0000  0.0137  -8.6983   0.0000   0.2270
 -12.500  -1.3327   0.01594   0.01084  -0.0085  1.0000  0.0142  -8.1443   0.0000   0.2287
 -12.000  -1.2900   0.01492   0.00978  -0.0068  1.0000  0.0153  -7.6391   0.0000   0.2306
 -11.500  -1.2437   0.01421   0.00902  -0.0055  1.0000  0.0162  -7.1252   0.0000   0.2322
 -11.000  -1.1983   0.01341   0.00820  -0.0040  1.0000  0.0175  -6.6339   0.0000   0.2340
 -10.500  -1.1519   0.01279   0.00755  -0.0025  1.0000  0.0187  -6.1490   0.0000   0.2358
 -10.000  -1.1077   0.01212   0.00687  -0.0005  1.0000  0.0203  -5.6908   0.0000   0.2382
  -9.500  -1.0637   0.01157   0.00629   0.0016  1.0000  0.0221  -5.2590   0.0000   0.2409
  -9.000  -1.0207   0.01107   0.00578   0.0040  1.0000  0.0240  -4.8517   0.0000   0.2439
  -8.500  -0.9735   0.01054   0.00526   0.0055  0.9996  0.0267  -4.4415   0.0000   0.2462
  -8.000  -0.9090   0.00998   0.00473   0.0033  0.9977  0.0307  -3.9872   0.0000   0.2448
  -7.500  -0.8433   0.00946   0.00425   0.0009  0.9960  0.0358  -3.5624   0.0000   0.2427
  -7.000  -0.7781   0.00896   0.00379  -0.0014  0.9934  0.0428  -3.1595   0.0000   0.2403
  -6.500  -0.7129   0.00847   0.00337  -0.0036  0.9902  0.0524  -2.7913   0.0000   0.2374
  -6.000  -0.6516   0.00801   0.00299  -0.0049  0.9837  0.0654  -2.4570   0.0000   0.2354
  -5.500  -0.5958   0.00758   0.00265  -0.0049  0.9717  0.0825  -2.1614   0.0000   0.2351
  -5.000  -0.5433   0.00717   0.00233  -0.0041  0.9550  0.1055  -1.8990   0.0000   0.2362
  -4.500  -0.4911   0.00678   0.00203  -0.0032  0.9337  0.1355  -1.6577   0.0000   0.2375
  -4.000  -0.4382   0.00642   0.00176  -0.0024  0.9078  0.1724  -1.4368   0.0000   0.2387
  -3.500  -0.3848   0.00609   0.00152  -0.0018  0.8765  0.2156  -1.2369   0.0000   0.2398
  -3.000  -0.3308   0.00582   0.00132  -0.0014  0.8401  0.2628  -1.0591   0.0000   0.2406
  -2.500  -0.2764   0.00560   0.00115  -0.0010  0.7991  0.3121  -0.9024   0.0000   0.2414
  -2.000  -0.2216   0.00543   0.00102  -0.0007  0.7548  0.3622  -0.7675   0.0000   0.2421
  -1.500  -0.1664   0.00530   0.00093  -0.0005  0.7082  0.4128  -0.6533   0.0000   0.2425
  -1.000  -0.1111   0.00522   0.00086  -0.0003  0.6602  0.4630  -0.5581   0.0000   0.2429
  -0.500  -0.0556   0.00517   0.00082  -0.0001  0.6116  0.5129  -0.4794   0.0000   0.2432
   0.000   0.0000   0.00515   0.00081  -0.0000  0.5625  0.5625  -0.4133   0.0000   0.4684
   0.500   0.0556   0.00517   0.00082   0.0001  0.5130  0.6116  -0.4794   0.0000   0.2432
   1.000   0.1111   0.00522   0.00086   0.0003  0.4630  0.6602  -0.5582   0.0000   0.2429
   1.500   0.1665   0.00530   0.00092   0.0005  0.4128  0.7082  -0.6533   0.0000   0.2425
   2.000   0.2216   0.00543   0.00102   0.0007  0.3622  0.7548  -0.7675   0.0000   0.2421
   2.500   0.2764   0.00560   0.00115   0.0010  0.3121  0.7991  -0.9024   0.0000   0.2414
   3.000   0.3308   0.00582   0.00132   0.0014  0.2628  0.8401  -1.0591   0.0000   0.2406
   3.500   0.3848   0.00609   0.00152   0.0019  0.2156  0.8765  -1.2370   0.0000   0.2398
   4.000   0.4382   0.00642   0.00176   0.0025  0.1724  0.9078  -1.4368   0.0000   0.2387
   4.500   0.4911   0.00678   0.00203   0.0033  0.1355  0.9337  -1.6578   0.0000   0.2375
   5.000   0.5433   0.00717   0.00233   0.0042  0.1055  0.9550  -1.8990   0.0000   0.2362
   5.500   0.5959   0.00758   0.00265   0.0050  0.0825  0.9717  -2.1614   0.0000   0.2351
   6.000   0.6517   0.00801   0.00299   0.0051  0.0654  0.9837  -2.4571   0.0000   0.2354
   6.500   0.7129   0.00847   0.00337   0.0038  0.0524  0.9902  -2.7914   0.0000   0.2375
   7.000   0.7781   0.00896   0.00379   0.0016  0.0428  0.9934  -3.1596   0.0000   0.2403
   7.500   0.8433   0.00946   0.00425  -0.0007  0.0358  0.9960  -3.5626   0.0000   0.2427
   8.000   0.9090   0.00998   0.00473  -0.0030  0.0307  0.9978  -3.9874   0.0000   0.2448
   8.500   0.9735   0.01054   0.00526  -0.0052  0.0267  0.9996  -4.4417   0.0000   0.2463
   9.000   1.0206   0.01107   0.00578  -0.0036  0.0240  1.0000  -4.8513   0.0000   0.2439
   9.500   1.0636   0.01157   0.00629  -0.0012  0.0221  1.0000  -5.2588   0.0000   0.2408
  10.000   1.1077   0.01212   0.00687   0.0010  0.0203  1.0000  -5.6907   0.0000   0.2382
  10.500   1.1519   0.01279   0.00755   0.0030  0.0187  1.0000  -6.1491   0.0000   0.2358
  11.000   1.1984   0.01341   0.00820   0.0046  0.0175  1.0000  -6.6342   0.0000   0.2340
  11.500   1.2438   0.01421   0.00902   0.0061  0.0162  1.0000  -7.1257   0.0000   0.2322
  12.000   1.2901   0.01492   0.00978   0.0074  0.0153  1.0000  -7.6397   0.0000   0.2306
  12.500   1.3329   0.01594   0.01084   0.0092  0.0142  1.0000  -8.1452   0.0000   0.2287
  13.000   1.3772   0.01674   0.01170   0.0107  0.0137  1.0000  -8.6995   0.0000   0.2270
  13.500   1.4187   0.01769   0.01272   0.0124  0.0130  1.0000  -9.2517   0.0000   0.2252
  14.000   1.4547   0.01898   0.01407   0.0149  0.0123  1.0000  -9.7766   0.0000   0.2229
  14.500   1.4895   0.02011   0.01529   0.0175  0.0119  1.0000  -10.3110   0.0000   0.2205
  15.000   1.5170   0.02133   0.01660   0.0211  0.0114  1.0000  -10.8128   0.0000   0.2175
  15.500   1.5407   0.02288   0.01825   0.0246  0.0110  1.0000  -11.2942   0.0000   0.2145
  16.000   1.5588   0.02499   0.02046   0.0278  0.0106  1.0000  -11.7381   0.0000   0.2116
  16.500   1.5657   0.02826   0.02389   0.0307  0.0102  1.0000  -12.0888   0.0000   0.2088
  17.000   1.5796   0.03142   0.02719   0.0320  0.0101  1.0000  -12.5017   0.0000   0.2071
  17.500   1.5871   0.03566   0.03159   0.0322  0.0099  1.0000  -12.8649   0.0000   0.2059
  18.000   1.5867   0.04134   0.03746   0.0311  0.0097  1.0000  -13.1636   0.0000   0.2054
  18.500   1.5758   0.04895   0.04527   0.0283  0.0095  1.0000  -13.3544   0.0000   0.2057
  19.000   1.5498   0.05925   0.05579   0.0236  0.0094  1.0000  -13.3813   0.0000   0.2071
  19.500   1.5022   0.07340   0.07022   0.0165  0.0094  1.0000  -13.1613   0.0000   0.2100
  20.000   1.4265   0.09284   0.08999   0.0064  0.0094  1.0000  -12.5913   0.0000   0.2151
  20.500   1.3325   0.11660   0.11409  -0.0068  0.0096  1.0000  -11.7105   0.0000   0.2235
  21.000   1.2539   0.13908   0.13686  -0.0208  0.0096  1.0000  -10.8608   0.0000   0.2339
  21.500   1.2042   0.15713   0.15510  -0.0332  0.0096  1.0000  -10.2535   0.0000   0.2438
  22.000   1.1736   0.17191   0.17003  -0.0439  0.0094  1.0000  -9.8277   0.0000   0.2527
  22.500   1.1545   0.18464   0.18288  -0.0536  0.0093  1.0000  -9.5121   0.0000   0.2607
  23.000   1.1425   0.19600   0.19432  -0.0625  0.0090  1.0000  -9.2637   0.0000   0.2680
  23.500   1.1363   0.20620   0.20459  -0.0708  0.0087  1.0000  -9.0757   0.0000   0.2745
  24.000   1.1305   0.21652   0.21499  -0.0793  0.0084  1.0000  -8.8387   0.0000   0.2814
  24.500   1.1078   0.23244   0.23108  -0.0917  0.0081  1.0000  -8.0593   0.0000   0.2937
  26.500   0.6615   0.28237   0.28138  -0.0691  0.0043  1.0000  -1.5290   0.0000   0.3299
  27.000   0.6680   0.28659   0.28561  -0.0716  0.0042  1.0000  -1.6239   0.0000   0.3317
  27.500   0.6687   0.29546   0.29449  -0.0741  0.0037  1.0000  -1.3425   0.0000   0.3354
  28.000   0.6740   0.30059   0.29963  -0.0767  0.0034  1.0000  -1.3698   0.0000   0.3375
  28.500   0.6794   0.30525   0.30430  -0.0794  0.0032  1.0000  -1.4309   0.0000   0.3394
  29.000   0.6849   0.30955   0.30861  -0.0821  0.0031  1.0000  -1.5186   0.0000   0.3412
  29.500   0.6880   0.31588   0.31495  -0.0846  0.0031  1.0000  -1.4409   0.0000   0.3436
  30.000   0.6908   0.32366   0.32274  -0.0871  0.0024  1.0000  -1.2734   0.0000   0.3463
  30.500   0.6953   0.32857   0.32766  -0.0898  0.0023  1.0000  -1.3222   0.0000   0.3482
  31.000   0.6998   0.33307   0.33217  -0.0925  0.0022  1.0000  -1.3953   0.0000   0.3501
  31.500   0.7035   0.33778   0.33690  -0.0952  0.0021  1.0000  -1.4433   0.0000   0.3518
  32.000   0.7052   0.34691   0.34603  -0.0975  0.0018  1.0000  -1.1844   0.0000   0.3546
  32.500   0.7087   0.35211   0.35124  -0.1002  0.0016  1.0000  -1.2115   0.0000   0.3565
  33.000   0.7121   0.35684   0.35599  -0.1030  0.0015  1.0000  -1.2639   0.0000   0.3583
  33.500   0.7153   0.36119   0.36035  -0.1058  0.0014  1.0000  -1.3374   0.0000   0.3601
  34.000   0.7174   0.36697   0.36613  -0.1084  0.0014  1.0000  -1.3104   0.0000   0.3621
  34.500   0.7192   0.37526   0.37443  -0.1107  0.0011  1.0000  -1.1167   0.0000   0.3643
  35.000   0.7215   0.38036   0.37954  -0.1134  0.0009  1.0000  -1.1384   0.0000   0.3661
  35.500   0.7237   0.38504   0.38424  -0.1162  0.0008  1.0000  -1.1841   0.0000   0.3679
  36.000   0.7256   0.38924   0.38845  -0.1190  0.0008  1.0000  -1.2483   0.0000   0.3697


