xflr5 v6.33

 Calculated polar for: NACA 0012 v1

 1 1 Reynolds number fixed          Mach number fixed         

 xtrf =   1.000 (top)        1.000 (bottom)
 Mach =   0.000     Re =     3.900 e 6     Ncrit =   9.000

  alpha     CL        CD       CDp       Cm    Top Xtr Bot Xtr   Cpmin    Chinge    XCp    
 ------- -------- --------- --------- -------- ------- ------- -------- --------- ---------
 -27.000  -1.1481   0.26564   0.26462   0.1231  1.0000  0.0055  -8.1154   0.0000   0.3116
 -26.500  -1.1450   0.25734   0.25629   0.1156  1.0000  0.0060  -8.3183   0.0000   0.3063
 -26.000  -1.1449   0.24812   0.24703   0.1075  1.0000  0.0063  -8.5958   0.0000   0.3002
 -25.500  -1.1467   0.23849   0.23732   0.0992  1.0000  0.0066  -8.8756   0.0000   0.2937
 -25.000  -1.1481   0.22922   0.22799   0.0911  1.0000  0.0068  -9.0902   0.0000   0.2876
 -24.500  -1.1514   0.21955   0.21824   0.0829  1.0000  0.0069  -9.3043   0.0000   0.2812
 -24.000  -1.1614   0.20834   0.20695   0.0735  1.0000  0.0072  -9.6263   0.0000   0.2735
 -23.500  -1.1873   0.19347   0.19196   0.0615  1.0000  0.0075  -10.1992   0.0000   0.2628
 -23.000  -1.2352   0.17444   0.17275   0.0466  1.0000  0.0076  -11.0425   0.0000   0.2494
 -22.500  -1.3173   0.14965   0.14768   0.0283  1.0000  0.0076  -12.2392   0.0000   0.2340
 -22.000  -1.4194   0.12305   0.12073   0.0105  1.0000  0.0075  -13.4697   0.0000   0.2210
 -21.500  -1.5165   0.09918   0.09652  -0.0033  1.0000  0.0073  -14.4303   0.0000   0.2128
 -21.000  -1.5957   0.07956   0.07659  -0.0136  1.0000  0.0073  -15.0628   0.0000   0.2079
 -20.500  -1.6525   0.06425   0.06102  -0.0211  1.0000  0.0073  -15.3871   0.0000   0.2051
 -20.000  -1.6887   0.05270   0.04924  -0.0263  1.0000  0.0074  -15.4557   0.0000   0.2037
 -19.500  -1.7080   0.04409   0.04044  -0.0296  1.0000  0.0076  -15.3290   0.0000   0.2034
 -19.000  -1.7145   0.03763   0.03383  -0.0312  1.0000  0.0077  -15.0622   0.0000   0.2039
 -18.500  -1.7119   0.03276   0.02882  -0.0315  1.0000  0.0079  -14.7006   0.0000   0.2049
 -18.000  -1.7025   0.02903   0.02497  -0.0307  1.0000  0.0081  -14.2744   0.0000   0.2065
 -17.500  -1.6883   0.02615   0.02198  -0.0290  1.0000  0.0083  -13.8052   0.0000   0.2085
 -17.000  -1.6697   0.02391   0.01963  -0.0266  1.0000  0.0084  -13.3050   0.0000   0.2108
 -16.500  -1.6481   0.02211   0.01774  -0.0237  1.0000  0.0085  -12.8021   0.0000   0.2134
 -16.000  -1.6293   0.02030   0.01584  -0.0197  1.0000  0.0090  -12.3344   0.0000   0.2167
 -15.500  -1.6045   0.01901   0.01448  -0.0158  1.0000  0.0094  -11.8198   0.0000   0.2199
 -15.000  -1.5706   0.01795   0.01336  -0.0130  1.0000  0.0097  -11.2516   0.0000   0.2224
 -14.500  -1.5310   0.01702   0.01238  -0.0111  1.0000  0.0101  -10.6587   0.0000   0.2243
 -14.000  -1.4893   0.01614   0.01145  -0.0094  1.0000  0.0104  -10.0661   0.0000   0.2262
 -13.500  -1.4474   0.01517   0.01044  -0.0077  1.0000  0.0112  -9.4903   0.0000   0.2280
 -13.000  -1.4022   0.01440   0.00964  -0.0064  1.0000  0.0118  -8.9050   0.0000   0.2296
 -12.500  -1.3552   0.01374   0.00895  -0.0053  1.0000  0.0121  -8.3245   0.0000   0.2311
 -12.000  -1.3092   0.01296   0.00815  -0.0039  1.0000  0.0132  -7.7895   0.0000   0.2328
 -11.500  -1.2616   0.01234   0.00752  -0.0028  1.0000  0.0140  -7.2604   0.0000   0.2343
 -11.000  -1.2146   0.01174   0.00690  -0.0014  1.0000  0.0149  -6.7522   0.0000   0.2361
 -10.500  -1.1691   0.01120   0.00636   0.0004  1.0000  0.0161  -6.2638   0.0000   0.2383
 -10.000  -1.1252   0.01069   0.00584   0.0026  1.0000  0.0174  -5.7990   0.0000   0.2410
  -8.500  -0.9489   0.00919   0.00440  -0.0003  0.9965  0.0237  -4.3640   0.0000   0.2402
  -8.000  -0.8855   0.00874   0.00397  -0.0022  0.9945  0.0268  -3.9183   0.0000   0.2386
  -7.500  -0.8245   0.00829   0.00357  -0.0035  0.9902  0.0312  -3.5100   0.0000   0.2373
  -7.000  -0.7676   0.00791   0.00322  -0.0038  0.9815  0.0363  -3.1353   0.0000   0.2371
  -6.500  -0.7146   0.00756   0.00290  -0.0031  0.9681  0.0431  -2.8024   0.0000   0.2381
  -6.000  -0.6621   0.00723   0.00259  -0.0023  0.9504  0.0520  -2.4891   0.0000   0.2394
  -5.500  -0.6086   0.00693   0.00230  -0.0017  0.9285  0.0636  -2.1970   0.0000   0.2405
  -5.000  -0.5547   0.00664   0.00203  -0.0012  0.9017  0.0797  -1.9273   0.0000   0.2415
  -4.500  -0.5002   0.00637   0.00177  -0.0009  0.8699  0.1012  -1.6781   0.0000   0.2423
  -4.000  -0.4455   0.00612   0.00154  -0.0006  0.8335  0.1289  -1.4514   0.0000   0.2431
  -3.500  -0.3905   0.00589   0.00134  -0.0004  0.7928  0.1626  -1.2466   0.0000   0.2437
  -3.000  -0.3354   0.00568   0.00116  -0.0002  0.7496  0.2017  -1.0661   0.0000   0.2443
  -2.500  -0.2799   0.00550   0.00102  -0.0001  0.7044  0.2443  -0.9070   0.0000   0.2448
  -2.000  -0.2242   0.00536   0.00090   0.0000  0.6587  0.2894  -0.7702   0.0000   0.2452
  -1.500  -0.1684   0.00525   0.00081   0.0000  0.6129  0.3355  -0.6548   0.0000   0.2455
  -1.000  -0.1124   0.00517   0.00075   0.0000  0.5667  0.3821  -0.5588   0.0000   0.2458
  -0.500  -0.0562   0.00512   0.00072   0.0000  0.5208  0.4287  -0.4794   0.0000   0.2459
   0.000  -0.0000   0.00510   0.00070  -0.0000  0.4749  0.4749  -0.4129   0.0000   0.4532
   0.500   0.0562   0.00512   0.00072  -0.0000  0.4287  0.5208  -0.4794   0.0000   0.2459
   1.000   0.1124   0.00517   0.00075  -0.0000  0.3822  0.5667  -0.5588   0.0000   0.2458
   1.500   0.1684   0.00525   0.00081  -0.0000  0.3355  0.6129  -0.6548   0.0000   0.2455
   2.000   0.2242   0.00536   0.00090   0.0000  0.2894  0.6586  -0.7702   0.0000   0.2452
   2.500   0.2799   0.00551   0.00102   0.0001  0.2443  0.7044  -0.9070   0.0000   0.2448
   3.000   0.3354   0.00568   0.00116   0.0002  0.2017  0.7496  -1.0661   0.0000   0.2443
   3.500   0.3906   0.00589   0.00134   0.0004  0.1626  0.7928  -1.2466   0.0000   0.2437
   4.000   0.4456   0.00612   0.00154   0.0006  0.1289  0.8335  -1.4514   0.0000   0.2431
   4.500   0.5003   0.00637   0.00177   0.0010  0.1012  0.8699  -1.6782   0.0000   0.2423
   5.000   0.5547   0.00664   0.00203   0.0014  0.0797  0.9017  -1.9273   0.0000   0.2415
   6.000   0.6622   0.00723   0.00259   0.0025  0.0520  0.9504  -2.4892   0.0000   0.2394
   6.500   0.7147   0.00756   0.00290   0.0033  0.0431  0.9680  -2.8025   0.0000   0.2381
   7.000   0.7676   0.00791   0.00322   0.0040  0.0363  0.9815  -3.1354   0.0000   0.2371
   7.500   0.8246   0.00829   0.00357   0.0038  0.0312  0.9902  -3.5102   0.0000   0.2373
   8.000   0.8856   0.00874   0.00397   0.0025  0.0268  0.9945  -3.9185   0.0000   0.2386
   8.500   0.9489   0.00919   0.00440   0.0006  0.0237  0.9965  -4.3642   0.0000   0.2402
   9.000   1.0121   0.00968   0.00486  -0.0012  0.0210  0.9980  -4.8389   0.0000   0.2415
   9.500   1.0743   0.01021   0.00537  -0.0029  0.0188  0.9995  -5.3280   0.0000   0.2424
  10.000   1.1251   0.01069   0.00584  -0.0021  0.0174  1.0000  -5.7985   0.0000   0.2410
  10.500   1.1691   0.01120   0.00636   0.0001  0.0161  1.0000  -6.2636   0.0000   0.2383
  11.000   1.2146   0.01174   0.00690   0.0020  0.0149  1.0000  -6.7523   0.0000   0.2361
  11.500   1.2616   0.01234   0.00752   0.0034  0.0140  1.0000  -7.2608   0.0000   0.2344
  12.000   1.3093   0.01296   0.00815   0.0046  0.0132  1.0000  -7.7900   0.0000   0.2328
  12.500   1.3554   0.01374   0.00895   0.0060  0.0121  1.0000  -8.3252   0.0000   0.2311
  13.000   1.4024   0.01440   0.00964   0.0071  0.0118  1.0000  -8.9060   0.0000   0.2297
  13.500   1.4476   0.01517   0.01044   0.0085  0.0112  1.0000  -9.4915   0.0000   0.2281
  14.000   1.4895   0.01614   0.01145   0.0103  0.0104  1.0000  -10.0675   0.0000   0.2262
  14.500   1.5313   0.01702   0.01238   0.0120  0.0101  1.0000  -10.6605   0.0000   0.2244
  15.000   1.5709   0.01795   0.01336   0.0140  0.0097  1.0000  -11.2538   0.0000   0.2224
  15.500   1.6050   0.01901   0.01448   0.0167  0.0094  1.0000  -11.8231   0.0000   0.2200
  16.000   1.6299   0.02030   0.01584   0.0207  0.0090  1.0000  -12.3385   0.0000   0.2167
  16.500   1.6487   0.02211   0.01774   0.0247  0.0085  1.0000  -12.8066   0.0000   0.2135
  17.000   1.6706   0.02390   0.01962   0.0276  0.0084  1.0000  -13.3112   0.0000   0.2109
  17.500   1.6893   0.02613   0.02196   0.0300  0.0083  1.0000  -13.8127   0.0000   0.2086
  18.000   1.7037   0.02901   0.02495   0.0318  0.0081  1.0000  -14.2832   0.0000   0.2066
  18.500   1.7132   0.03272   0.02878   0.0326  0.0079  1.0000  -14.7109   0.0000   0.2050
  19.000   1.7160   0.03758   0.03378   0.0324  0.0077  1.0000  -15.0744   0.0000   0.2040
  19.500   1.7097   0.04402   0.04038   0.0308  0.0076  1.0000  -15.3430   0.0000   0.2035
  20.000   1.6906   0.05263   0.04917   0.0275  0.0074  1.0000  -15.4716   0.0000   0.2039
  20.500   1.6546   0.06417   0.06093   0.0223  0.0073  1.0000  -15.4043   0.0000   0.2052
  21.000   1.5978   0.07947   0.07649   0.0147  0.0073  1.0000  -15.0809   0.0000   0.2080
  21.500   1.5186   0.09910   0.09644   0.0044  0.0073  1.0000  -14.4490   0.0000   0.2129
  22.000   1.4213   0.12301   0.12069  -0.0096  0.0075  1.0000  -13.4866   0.0000   0.2212
  22.500   1.3188   0.14974   0.14777  -0.0275  0.0076  1.0000  -12.2516   0.0000   0.2341
  23.000   1.2364   0.17459   0.17291  -0.0461  0.0076  1.0000  -11.0503   0.0000   0.2496
  23.500   1.1885   0.19369   0.19219  -0.0611  0.0075  1.0000  -10.2051   0.0000   0.2629
  24.000   1.1626   0.20864   0.20726  -0.0732  0.0072  1.0000  -9.6312   0.0000   0.2736
  24.500   1.1527   0.21989   0.21858  -0.0826  0.0069  1.0000  -9.3116   0.0000   0.2814
  25.000   1.1494   0.22964   0.22841  -0.0908  0.0068  1.0000  -9.0963   0.0000   0.2878
  25.500   1.1480   0.23904   0.23788  -0.0990  0.0066  1.0000  -8.8822   0.0000   0.2939
  26.000   1.1463   0.24873   0.24764  -0.1074  0.0063  1.0000  -8.6014   0.0000   0.3004
  26.500   1.1465   0.25805   0.25700  -0.1154  0.0060  1.0000  -8.3258   0.0000   0.3065
  27.000   1.1496   0.26651   0.26549  -0.1230  0.0055  1.0000  -8.1207   0.0000   0.3118


