xflr5 v6.33

 Calculated polar for: NACA 0012 v1

 1 1 Reynolds number fixed          Mach number fixed         

 xtrf =   1.000 (top)        1.000 (bottom)
 Mach =   0.000     Re =     3.700 e 6     Ncrit =   9.000

  alpha     CL        CD       CDp       Cm    Top Xtr Bot Xtr   Cpmin    Chinge    XCp    
 ------- -------- --------- --------- -------- ------- ------- -------- --------- ---------
 -27.000  -1.1422   0.26788   0.26687   0.1245  1.0000  0.0056  -7.8741   0.0000   0.3137
 -26.500  -1.1407   0.25880   0.25776   0.1165  1.0000  0.0060  -8.1541   0.0000   0.3077
 -26.000  -1.1414   0.24923   0.24813   0.1083  1.0000  0.0063  -8.4736   0.0000   0.3013
 -25.500  -1.1445   0.23909   0.23792   0.0996  1.0000  0.0066  -8.8074   0.0000   0.2943
 -25.000  -1.1461   0.22972   0.22847   0.0915  1.0000  0.0068  -9.0349   0.0000   0.2881
 -24.500  -1.1488   0.22020   0.21887   0.0833  1.0000  0.0070  -9.2401   0.0000   0.2818
 -24.000  -1.1583   0.20908   0.20769   0.0741  1.0000  0.0074  -9.5541   0.0000   0.2742
 -23.500  -1.1786   0.19554   0.19405   0.0631  1.0000  0.0076  -10.0213   0.0000   0.2646
 -23.000  -1.2155   0.17880   0.17716   0.0499  1.0000  0.0078  -10.6948   0.0000   0.2530
 -22.500  -1.2842   0.15626   0.15436   0.0330  1.0000  0.0078  -11.7367   0.0000   0.2384
 -22.000  -1.3868   0.12894   0.12670   0.0143  1.0000  0.0077  -13.0375   0.0000   0.2240
 -21.500  -1.4904   0.10352   0.10093  -0.0009  1.0000  0.0076  -14.1161   0.0000   0.2144
 -21.000  -1.5761   0.08259   0.07967  -0.0120  1.0000  0.0075  -14.8409   0.0000   0.2088
 -20.500  -1.6365   0.06660   0.06340  -0.0200  1.0000  0.0075  -15.2115   0.0000   0.2057
 -20.000  -1.6744   0.05463   0.05121  -0.0255  1.0000  0.0076  -15.3039   0.0000   0.2041
 -19.500  -1.6953   0.04568   0.04206  -0.0290  1.0000  0.0077  -15.1972   0.0000   0.2036
 -19.000  -1.7029   0.03894   0.03516  -0.0309  1.0000  0.0079  -14.9460   0.0000   0.2039
 -18.500  -1.7012   0.03383   0.02991  -0.0315  1.0000  0.0080  -14.5970   0.0000   0.2048
 -18.000  -1.6929   0.02990   0.02585  -0.0309  1.0000  0.0082  -14.1840   0.0000   0.2062
 -17.500  -1.6793   0.02686   0.02269  -0.0294  1.0000  0.0083  -13.7237   0.0000   0.2081
 -17.000  -1.6613   0.02451   0.02024  -0.0272  1.0000  0.0084  -13.2309   0.0000   0.2103
 -16.500  -1.6447   0.02232   0.01794  -0.0240  1.0000  0.0087  -12.7760   0.0000   0.2132
 -16.000  -1.6245   0.02059   0.01611  -0.0203  1.0000  0.0092  -12.2941   0.0000   0.2163
 -15.500  -1.5994   0.01929   0.01475  -0.0165  1.0000  0.0095  -11.7777   0.0000   0.2194
 -15.000  -1.5667   0.01823   0.01363  -0.0135  1.0000  0.0099  -11.2190   0.0000   0.2220
 -14.500  -1.5276   0.01729   0.01263  -0.0116  1.0000  0.0101  -10.6296   0.0000   0.2240
 -14.000  -1.4875   0.01629   0.01157  -0.0097  1.0000  0.0106  -10.0523   0.0000   0.2260
 -13.500  -1.4451   0.01536   0.01061  -0.0080  1.0000  0.0113  -9.4717   0.0000   0.2278
 -13.000  -1.4000   0.01460   0.00982  -0.0067  1.0000  0.0119  -8.8876   0.0000   0.2294
 -12.500  -1.3539   0.01388   0.00906  -0.0055  1.0000  0.0124  -8.3146   0.0000   0.2310
 -12.000  -1.3077   0.01311   0.00828  -0.0042  1.0000  0.0134  -7.7776   0.0000   0.2326
 -11.500  -1.2600   0.01251   0.00765  -0.0030  1.0000  0.0141  -7.2487   0.0000   0.2342
 -11.000  -1.2133   0.01187   0.00700  -0.0016  1.0000  0.0152  -6.7430   0.0000   0.2360
 -10.500  -1.1675   0.01134   0.00646   0.0001  1.0000  0.0163  -6.2533   0.0000   0.2381
 -10.000  -1.1236   0.01080   0.00592   0.0023  1.0000  0.0176  -5.7895   0.0000   0.2407
  -9.000  -1.0139   0.00980   0.00494   0.0020  0.9983  0.0212  -4.8442   0.0000   0.2420
  -8.500  -0.9507   0.00931   0.00447   0.0001  0.9967  0.0239  -4.3696   0.0000   0.2407
  -8.000  -0.8871   0.00884   0.00403  -0.0018  0.9949  0.0272  -3.9228   0.0000   0.2390
  -7.500  -0.8251   0.00838   0.00362  -0.0034  0.9913  0.0317  -3.5112   0.0000   0.2375
  -7.000  -0.7667   0.00799   0.00326  -0.0040  0.9840  0.0370  -3.1322   0.0000   0.2368
  -6.500  -0.7132   0.00763   0.00293  -0.0035  0.9712  0.0438  -2.7977   0.0000   0.2376
  -6.000  -0.6608   0.00728   0.00262  -0.0026  0.9544  0.0532  -2.4853   0.0000   0.2389
  -5.500  -0.6077   0.00697   0.00233  -0.0020  0.9334  0.0653  -2.1943   0.0000   0.2401
  -5.000  -0.5538   0.00668   0.00205  -0.0014  0.9079  0.0817  -1.9251   0.0000   0.2411
  -4.500  -0.4996   0.00640   0.00179  -0.0010  0.8771  0.1038  -1.6766   0.0000   0.2420
  -4.000  -0.4450   0.00614   0.00156  -0.0007  0.8415  0.1322  -1.4502   0.0000   0.2427
  -3.500  -0.3901   0.00590   0.00135  -0.0005  0.8015  0.1670  -1.2459   0.0000   0.2434
  -3.000  -0.3350   0.00569   0.00117  -0.0003  0.7586  0.2067  -1.0655   0.0000   0.2441
  -2.500  -0.2797   0.00551   0.00103  -0.0001  0.7135  0.2501  -0.9066   0.0000   0.2446
  -2.000  -0.2241   0.00536   0.00091  -0.0000  0.6676  0.2958  -0.7701   0.0000   0.2450
  -1.500  -0.1682   0.00525   0.00082   0.0000  0.6216  0.3422  -0.6546   0.0000   0.2453
  -1.000  -0.1123   0.00517   0.00076   0.0000  0.5753  0.3892  -0.5587   0.0000   0.2456
  -0.500  -0.0562   0.00512   0.00072   0.0000  0.5290  0.4362  -0.4794   0.0000   0.2457
   0.000  -0.0000   0.00510   0.00071  -0.0000  0.4827  0.4827  -0.4130   0.0000   0.4079
   0.500   0.0562   0.00512   0.00072  -0.0000  0.4362  0.5290  -0.4794   0.0000   0.2457
   1.000   0.1123   0.00517   0.00076  -0.0000  0.3892  0.5753  -0.5587   0.0000   0.2456
   1.500   0.1682   0.00525   0.00082   0.0000  0.3422  0.6216  -0.6546   0.0000   0.2453
   2.000   0.2241   0.00536   0.00091   0.0001  0.2958  0.6676  -0.7701   0.0000   0.2450
   2.500   0.2797   0.00551   0.00103   0.0002  0.2501  0.7135  -0.9066   0.0000   0.2446
   3.000   0.3350   0.00569   0.00117   0.0003  0.2067  0.7586  -1.0656   0.0000   0.2441
   3.500   0.3901   0.00590   0.00135   0.0005  0.1670  0.8015  -1.2460   0.0000   0.2435
   4.000   0.4450   0.00614   0.00156   0.0008  0.1322  0.8415  -1.4502   0.0000   0.2428
   4.500   0.4996   0.00640   0.00179   0.0011  0.1038  0.8770  -1.6766   0.0000   0.2420
   5.000   0.5539   0.00668   0.00205   0.0016  0.0817  0.9079  -1.9252   0.0000   0.2411
   5.500   0.6077   0.00697   0.00233   0.0021  0.0653  0.9334  -2.1944   0.0000   0.2401
   6.000   0.6609   0.00728   0.00262   0.0028  0.0532  0.9544  -2.4854   0.0000   0.2390
   6.500   0.7132   0.00763   0.00293   0.0037  0.0438  0.9712  -2.7978   0.0000   0.2377
   7.000   0.7668   0.00799   0.00326   0.0042  0.0370  0.9840  -3.1323   0.0000   0.2369
   7.500   0.8251   0.00838   0.00362   0.0036  0.0317  0.9913  -3.5113   0.0000   0.2375
   8.000   0.8871   0.00884   0.00403   0.0021  0.0272  0.9949  -3.9230   0.0000   0.2391
   8.500   0.9507   0.00931   0.00447   0.0002  0.0239  0.9967  -4.3699   0.0000   0.2407
   9.000   1.0139   0.00980   0.00494  -0.0017  0.0212  0.9983  -4.8445   0.0000   0.2420
   9.500   1.0761   0.01034   0.00546  -0.0034  0.0189  0.9998  -5.3337   0.0000   0.2429
  10.000   1.1235   0.01080   0.00592  -0.0018  0.0176  1.0000  -5.7891   0.0000   0.2407
  10.500   1.1675   0.01134   0.00646   0.0004  0.0163  1.0000  -6.2531   0.0000   0.2381
  11.000   1.2133   0.01187   0.00700   0.0022  0.0152  1.0000  -6.7431   0.0000   0.2360
  11.500   1.2600   0.01251   0.00765   0.0037  0.0141  1.0000  -7.2490   0.0000   0.2342
  12.000   1.3078   0.01311   0.00828   0.0048  0.0134  1.0000  -7.7781   0.0000   0.2326
  12.500   1.3540   0.01388   0.00906   0.0062  0.0124  1.0000  -8.3153   0.0000   0.2310
  13.000   1.4002   0.01460   0.00982   0.0074  0.0119  1.0000  -8.8885   0.0000   0.2294
  13.500   1.4453   0.01536   0.01061   0.0088  0.0113  1.0000  -9.4729   0.0000   0.2278
  14.000   1.4877   0.01629   0.01157   0.0105  0.0106  1.0000  -10.0537   0.0000   0.2260
  14.500   1.5279   0.01729   0.01263   0.0124  0.0101  1.0000  -10.6315   0.0000   0.2241
  15.000   1.5671   0.01823   0.01363   0.0145  0.0099  1.0000  -11.2213   0.0000   0.2221
  15.500   1.5999   0.01929   0.01475   0.0174  0.0095  1.0000  -11.7812   0.0000   0.2195
  16.000   1.6251   0.02059   0.01611   0.0213  0.0092  1.0000  -12.2983   0.0000   0.2163
  16.500   1.6454   0.02232   0.01793   0.0250  0.0087  1.0000  -12.7808   0.0000   0.2133
  17.000   1.6622   0.02450   0.02023   0.0283  0.0084  1.0000  -13.2372   0.0000   0.2104
  17.500   1.6803   0.02684   0.02268   0.0305  0.0083  1.0000  -13.7314   0.0000   0.2082
  18.000   1.6941   0.02987   0.02582   0.0321  0.0082  1.0000  -14.1931   0.0000   0.2063
  18.500   1.7025   0.03379   0.02987   0.0327  0.0080  1.0000  -14.6077   0.0000   0.2049
  19.000   1.7045   0.03889   0.03511   0.0321  0.0079  1.0000  -14.9586   0.0000   0.2040
  19.500   1.6970   0.04561   0.04199   0.0302  0.0077  1.0000  -15.2120   0.0000   0.2037
  20.000   1.6764   0.05454   0.05111   0.0266  0.0076  1.0000  -15.3209   0.0000   0.2042
  20.500   1.6386   0.06649   0.06330   0.0211  0.0075  1.0000  -15.2301   0.0000   0.2058
  21.000   1.5785   0.08247   0.07954   0.0131  0.0075  1.0000  -14.8619   0.0000   0.2089
  21.500   1.4927   0.10341   0.10081   0.0019  0.0076  1.0000  -14.1376   0.0000   0.2145
  22.000   1.3887   0.12892   0.12667  -0.0134  0.0077  1.0000  -13.0544   0.0000   0.2241
  22.500   1.2856   0.15636   0.15447  -0.0324  0.0078  1.0000  -11.7485   0.0000   0.2385
  23.000   1.2167   0.17895   0.17731  -0.0494  0.0078  1.0000  -10.7020   0.0000   0.2531
  23.500   1.1797   0.19580   0.19430  -0.0627  0.0076  1.0000  -10.0271   0.0000   0.2648
  24.000   1.1594   0.20941   0.20802  -0.0738  0.0074  1.0000  -9.5578   0.0000   0.2744
  24.500   1.1501   0.22055   0.21923  -0.0831  0.0070  1.0000  -9.2469   0.0000   0.2820
  25.000   1.1475   0.23015   0.22890  -0.0912  0.0068  1.0000  -9.0406   0.0000   0.2883
  25.500   1.1459   0.23965   0.23847  -0.0994  0.0066  1.0000  -8.8135   0.0000   0.2945
  26.000   1.1429   0.24986   0.24876  -0.1081  0.0063  1.0000  -8.4798   0.0000   0.3015
  26.500   1.1423   0.25950   0.25845  -0.1164  0.0060  1.0000  -8.1614   0.0000   0.3079


