xflr5 v6.33

 Calculated polar for: NACA 0012 v1

 1 1 Reynolds number fixed          Mach number fixed         

 xtrf =   1.000 (top)        1.000 (bottom)
 Mach =   0.000     Re =     0.900 e 6     Ncrit =   9.000

  alpha     CL        CD       CDp       Cm    Top Xtr Bot Xtr   Cpmin    Chinge    XCp    
 ------- -------- --------- --------- -------- ------- ------- -------- --------- ---------
 -25.500  -0.6467   0.27358   0.27200   0.0631  1.0000  0.0087  -1.3672   0.0000   0.3251
 -25.000  -0.6401   0.26897   0.26739   0.0607  1.0000  0.0090  -1.3135   0.0000   0.3231
 -24.500  -0.6346   0.26352   0.26191   0.0582  1.0000  0.0098  -1.3249   0.0000   0.3206
 -20.500  -1.1156   0.15673   0.15430   0.0331  1.0000  0.0136  -8.6650   0.0000   0.2480
 -20.000  -1.1459   0.14162   0.13896   0.0228  1.0000  0.0138  -9.0548   0.0000   0.2391
 -19.500  -1.1733   0.12775   0.12487   0.0139  1.0000  0.0140  -9.3222   0.0000   0.2321
 -19.000  -1.2014   0.11424   0.11114   0.0058  1.0000  0.0141  -9.5378   0.0000   0.2262
 -18.500  -1.2308   0.10092   0.09759  -0.0016  1.0000  0.0142  -9.7234   0.0000   0.2211
 -18.000  -1.2649   0.08772   0.08419  -0.0084  1.0000  0.0144  -9.9093   0.0000   0.2169
 -17.500  -1.2988   0.07492   0.07118  -0.0148  1.0000  0.0145  -10.0547   0.0000   0.2133
 -17.000  -1.3280   0.06324   0.05929  -0.0206  1.0000  0.0147  -10.1260   0.0000   0.2104
 -16.500  -1.3477   0.05334   0.04917  -0.0254  1.0000  0.0149  -10.0887   0.0000   0.2083
 -16.000  -1.3572   0.04532   0.04094  -0.0289  1.0000  0.0152  -9.9497   0.0000   0.2070
 -15.500  -1.3589   0.03900   0.03440  -0.0309  1.0000  0.0156  -9.7349   0.0000   0.2068
 -15.000  -1.3540   0.03413   0.02931  -0.0312  1.0000  0.0160  -9.4621   0.0000   0.2075
 -14.500  -1.3414   0.03060   0.02554  -0.0303  1.0000  0.0165  -9.1291   0.0000   0.2090
 -14.000  -1.3387   0.02689   0.02170  -0.0273  1.0000  0.0170  -8.8554   0.0000   0.2121
 -13.500  -1.3200   0.02475   0.01944  -0.0241  1.0000  0.0177  -8.4671   0.0000   0.2152
 -13.000  -1.2962   0.02312   0.01766  -0.0205  1.0000  0.0185  -8.0544   0.0000   0.2185
 -12.500  -1.2720   0.02139   0.01580  -0.0166  1.0000  0.0194  -7.6508   0.0000   0.2220
 -12.000  -1.2368   0.02007   0.01439  -0.0142  1.0000  0.0205  -7.2077   0.0000   0.2244
 -11.500  -1.1992   0.01878   0.01297  -0.0119  1.0000  0.0217  -6.7736   0.0000   0.2267
 -11.000  -1.1595   0.01761   0.01174  -0.0098  1.0000  0.0231  -6.3300   0.0000   0.2289
 -10.500  -1.1182   0.01652   0.01057  -0.0078  1.0000  0.0249  -5.8939   0.0000   0.2310
 -10.000  -1.0742   0.01566   0.00964  -0.0060  1.0000  0.0269  -5.4551   0.0000   0.2331
  -9.500  -1.0322   0.01472   0.00866  -0.0039  1.0000  0.0293  -5.0541   0.0000   0.2356
  -9.000  -0.9900   0.01391   0.00782  -0.0016  1.0000  0.0322  -4.6668   0.0000   0.2383
  -8.500  -0.9478   0.01317   0.00706   0.0009  1.0000  0.0356  -4.2915   0.0000   0.2414
  -8.000  -0.9059   0.01251   0.00638   0.0034  1.0000  0.0401  -3.9342   0.0000   0.2448
  -7.500  -0.8646   0.01186   0.00574   0.0061  1.0000  0.0456  -3.6013   0.0000   0.2487
  -7.000  -0.8229   0.01128   0.00519   0.0087  1.0000  0.0531  -3.2771   0.0000   0.2527
  -6.500  -0.7728   0.01071   0.00467   0.0095  0.9991  0.0642  -2.9504   0.0000   0.2549
  -6.000  -0.7028   0.01007   0.00415   0.0061  0.9960  0.0837  -2.5821   0.0000   0.2517
  -5.500  -0.6333   0.00942   0.00365   0.0028  0.9919  0.1133  -2.2489   0.0000   0.2478
  -5.000  -0.5639   0.00875   0.00320  -0.0005  0.9873  0.1547  -1.9417   0.0000   0.2428
  -4.500  -0.4942   0.00809   0.00279  -0.0038  0.9822  0.2075  -1.6615   0.0000   0.2363
  -4.000  -0.4294   0.00750   0.00244  -0.0058  0.9734  0.2655  -1.4184   0.0000   0.2306
  -3.500  -0.3716   0.00698   0.00215  -0.0062  0.9586  0.3234  -1.2146   0.0000   0.2278
  -3.000  -0.3182   0.00655   0.00191  -0.0054  0.9381  0.3798  -1.0401   0.0000   0.2275
  -2.500  -0.2658   0.00620   0.00170  -0.0044  0.9119  0.4357  -0.8892   0.0000   0.2283
  -2.000  -0.2132   0.00592   0.00153  -0.0034  0.8803  0.4912  -0.7584   0.0000   0.2290
  -1.500  -0.1601   0.00572   0.00140  -0.0025  0.8433  0.5461  -0.6476   0.0000   0.2296
  -1.000  -0.1068   0.00558   0.00130  -0.0016  0.8007  0.6000  -0.5552   0.0000   0.2300
  -0.500  -0.0534   0.00550   0.00124  -0.0008  0.7542  0.6531  -0.4784   0.0000   0.2301
   0.000   0.0000   0.00548   0.00123  -0.0000  0.7046  0.7046  -0.4137   0.0000   0.4729
   0.500   0.0534   0.00550   0.00124   0.0008  0.6531  0.7542  -0.4784   0.0000   0.2301
   1.000   0.1068   0.00558   0.00130   0.0016  0.6000  0.8007  -0.5552   0.0000   0.2300
   1.500   0.1601   0.00572   0.00140   0.0025  0.5461  0.8433  -0.6477   0.0000   0.2296
   2.000   0.2132   0.00592   0.00153   0.0034  0.4912  0.8803  -0.7584   0.0000   0.2291
   2.500   0.2658   0.00620   0.00170   0.0044  0.4357  0.9119  -0.8892   0.0000   0.2283
   3.000   0.3182   0.00655   0.00191   0.0055  0.3798  0.9382  -1.0401   0.0000   0.2275
   3.500   0.3716   0.00698   0.00215   0.0062  0.3234  0.9586  -1.2146   0.0000   0.2278
   4.000   0.4294   0.00750   0.00244   0.0059  0.2655  0.9734  -1.4184   0.0000   0.2306
   4.500   0.4942   0.00809   0.00279   0.0039  0.2075  0.9822  -1.6615   0.0000   0.2363
   5.000   0.5639   0.00875   0.00320   0.0006  0.1547  0.9873  -1.9418   0.0000   0.2428
   5.500   0.6333   0.00942   0.00365  -0.0027  0.1132  0.9919  -2.2489   0.0000   0.2478
   6.000   0.7028   0.01007   0.00414  -0.0059  0.0837  0.9960  -2.5821   0.0000   0.2517
   6.500   0.7728   0.01071   0.00467  -0.0093  0.0642  0.9991  -2.9505   0.0000   0.2549
   7.000   0.8229   0.01128   0.00519  -0.0085  0.0531  1.0000  -3.2768   0.0000   0.2527
   7.500   0.8645   0.01185   0.00574  -0.0058  0.0456  1.0000  -3.6010   0.0000   0.2486
   8.000   0.9058   0.01251   0.00638  -0.0031  0.0401  1.0000  -3.9340   0.0000   0.2448
   8.500   0.9478   0.01317   0.00706  -0.0005  0.0356  1.0000  -4.2913   0.0000   0.2414
   9.000   0.9899   0.01391   0.00782   0.0020  0.0322  1.0000  -4.6667   0.0000   0.2383
   9.500   1.0322   0.01471   0.00866   0.0043  0.0293  1.0000  -5.0541   0.0000   0.2356
  10.000   1.0743   0.01566   0.00964   0.0065  0.0269  1.0000  -5.4553   0.0000   0.2331
  10.500   1.1182   0.01652   0.01057   0.0083  0.0249  1.0000  -5.8943   0.0000   0.2311
  11.000   1.1596   0.01761   0.01174   0.0103  0.0231  1.0000  -6.3305   0.0000   0.2289
  11.500   1.1994   0.01878   0.01297   0.0124  0.0217  1.0000  -6.7742   0.0000   0.2267
  12.000   1.2370   0.02007   0.01439   0.0148  0.0205  1.0000  -7.2087   0.0000   0.2244
  12.500   1.2723   0.02139   0.01580   0.0172  0.0194  1.0000  -7.6522   0.0000   0.2221
  13.000   1.2966   0.02312   0.01766   0.0211  0.0185  1.0000  -8.0567   0.0000   0.2185
  13.500   1.3205   0.02475   0.01944   0.0248  0.0177  1.0000  -8.4699   0.0000   0.2153
  14.000   1.3393   0.02689   0.02170   0.0280  0.0170  1.0000  -8.8587   0.0000   0.2122
  14.500   1.3422   0.03059   0.02553   0.0310  0.0165  1.0000  -9.1338   0.0000   0.2091
  15.000   1.3549   0.03412   0.02930   0.0320  0.0160  1.0000  -9.4673   0.0000   0.2076
  15.500   1.3599   0.03898   0.03438   0.0316  0.0156  1.0000  -9.7411   0.0000   0.2069
  16.000   1.3584   0.04529   0.04091   0.0296  0.0152  1.0000  -9.9572   0.0000   0.2072
  16.500   1.3490   0.05330   0.04913   0.0261  0.0149  1.0000  -10.0974   0.0000   0.2084
  17.000   1.3294   0.06321   0.05925   0.0213  0.0147  1.0000  -10.1352   0.0000   0.2106
  17.500   1.3001   0.07489   0.07116   0.0155  0.0145  1.0000  -10.0634   0.0000   0.2135
  18.000   1.2661   0.08770   0.08417   0.0090  0.0144  1.0000  -9.9169   0.0000   0.2171
  18.500   1.2321   0.10092   0.09759   0.0022  0.0142  1.0000  -9.7311   0.0000   0.2213
  19.000   1.2026   0.11426   0.11116  -0.0053  0.0141  1.0000  -9.5442   0.0000   0.2264
  19.500   1.1744   0.12781   0.12493  -0.0134  0.0140  1.0000  -9.3278   0.0000   0.2323
  20.000   1.1469   0.14171   0.13905  -0.0224  0.0138  1.0000  -9.0591   0.0000   0.2393
  20.500   1.1165   0.15689   0.15446  -0.0327  0.0136  1.0000  -8.6675   0.0000   0.2482


