xflr5 v6.33

 Calculated polar for: NACA 0012 v1

 1 1 Reynolds number fixed          Mach number fixed         

 xtrf =   1.000 (top)        1.000 (bottom)
 Mach =   0.000     Re =     1.200 e 6     Ncrit =   9.000

  alpha     CL        CD       CDp       Cm    Top Xtr Bot Xtr   Cpmin    Chinge    XCp    
 ------- -------- --------- --------- -------- ------- ------- -------- --------- ---------
 -22.000  -1.0927   0.18938   0.18745   0.0572  1.0000  0.0115  -8.2885   0.0000   0.2679
 -21.500  -1.1255   0.17256   0.17040   0.0448  1.0000  0.0118  -8.9288   0.0000   0.2560
 -21.000  -1.1473   0.15917   0.15684   0.0352  1.0000  0.0120  -9.2602   0.0000   0.2477
 -20.500  -1.1681   0.14644   0.14393   0.0265  1.0000  0.0121  -9.5035   0.0000   0.2407
 -20.000  -1.1918   0.13368   0.13101   0.0182  1.0000  0.0123  -9.7248   0.0000   0.2344
 -19.500  -1.2224   0.12005   0.11723   0.0100  1.0000  0.0124  -9.9728   0.0000   0.2284
 -19.000  -1.2636   0.10484   0.10182   0.0015  1.0000  0.0125  -10.2896   0.0000   0.2225
 -18.500  -1.3131   0.08876   0.08551  -0.0069  1.0000  0.0125  -10.6359   0.0000   0.2172
 -18.000  -1.3624   0.07332   0.06981  -0.0147  1.0000  0.0125  -10.9288   0.0000   0.2128
 -17.500  -1.4022   0.05997   0.05619  -0.0215  1.0000  0.0126  -11.0906   0.0000   0.2096
 -17.000  -1.4262   0.04952   0.04551  -0.0265  1.0000  0.0128  -11.0784   0.0000   0.2076
 -16.500  -1.4350   0.04187   0.03764  -0.0296  1.0000  0.0130  -10.9110   0.0000   0.2068
 -16.000  -1.4338   0.03621   0.03179  -0.0310  1.0000  0.0134  -10.6467   0.0000   0.2070
 -15.500  -1.4258   0.03195   0.02734  -0.0308  1.0000  0.0138  -10.3242   0.0000   0.2081
 -15.000  -1.4116   0.02878   0.02398  -0.0294  1.0000  0.0142  -9.9543   0.0000   0.2099
 -14.500  -1.4060   0.02548   0.02052  -0.0261  1.0000  0.0147  -9.6458   0.0000   0.2131
 -14.000  -1.3872   0.02345   0.01837  -0.0227  1.0000  0.0152  -9.2371   0.0000   0.2162
 -13.500  -1.3629   0.02194   0.01674  -0.0189  1.0000  0.0158  -8.7987   0.0000   0.2196
 -13.000  -1.3304   0.02072   0.01538  -0.0160  1.0000  0.0164  -8.3217   0.0000   0.2222
 -12.500  -1.2986   0.01913   0.01372  -0.0132  1.0000  0.0174  -7.8627   0.0000   0.2249
 -12.000  -1.2579   0.01811   0.01261  -0.0113  1.0000  0.0185  -7.3782   0.0000   0.2269
 -11.500  -1.2181   0.01691   0.01133  -0.0092  1.0000  0.0196  -6.9210   0.0000   0.2290
 -11.000  -1.1745   0.01601   0.01036  -0.0076  1.0000  0.0209  -6.4493   0.0000   0.2308
 -10.500  -1.1314   0.01504   0.00934  -0.0058  1.0000  0.0225  -5.9958   0.0000   0.2329
 -10.000  -1.0866   0.01428   0.00852  -0.0041  1.0000  0.0244  -5.5454   0.0000   0.2349
  -9.500  -1.0432   0.01353   0.00774  -0.0020  1.0000  0.0265  -5.1295   0.0000   0.2374
  -9.000  -1.0004   0.01282   0.00701   0.0003  1.0000  0.0292  -4.7339   0.0000   0.2402
  -8.500  -0.9580   0.01218   0.00636   0.0027  1.0000  0.0324  -4.3508   0.0000   0.2434
  -8.000  -0.9159   0.01161   0.00578   0.0053  1.0000  0.0362  -3.9864   0.0000   0.2469
  -7.500  -0.8744   0.01105   0.00524   0.0080  1.0000  0.0412  -3.6482   0.0000   0.2508
  -7.000  -0.8159   0.01047   0.00470   0.0071  0.9984  0.0489  -3.2651   0.0000   0.2508
  -6.500  -0.7474   0.00989   0.00419   0.0040  0.9958  0.0607  -2.8826   0.0000   0.2479
  -6.000  -0.6793   0.00930   0.00370   0.0011  0.9926  0.0784  -2.5238   0.0000   0.2445
  -5.500  -0.6107   0.00870   0.00325  -0.0020  0.9891  0.1045  -2.1943   0.0000   0.2401
  -5.000  -0.5440   0.00810   0.00283  -0.0046  0.9837  0.1405  -1.8977   0.0000   0.2352
  -4.500  -0.4824   0.00753   0.00246  -0.0059  0.9744  0.1848  -1.6379   0.0000   0.2316
  -4.000  -0.4276   0.00702   0.00215  -0.0057  0.9587  0.2341  -1.4156   0.0000   0.2309
  -3.500  -0.3752   0.00657   0.00188  -0.0048  0.9383  0.2861  -1.2208   0.0000   0.2318
  -3.000  -0.3229   0.00620   0.00165  -0.0038  0.9124  0.3398  -1.0470   0.0000   0.2329
  -2.500  -0.2699   0.00590   0.00146  -0.0030  0.8814  0.3940  -0.8943   0.0000   0.2339
  -2.000  -0.2164   0.00567   0.00130  -0.0022  0.8449  0.4481  -0.7619   0.0000   0.2346
  -1.500  -0.1626   0.00551   0.00118  -0.0016  0.8034  0.5018  -0.6499   0.0000   0.2352
  -1.000  -0.1085   0.00540   0.00110  -0.0010  0.7578  0.5550  -0.5564   0.0000   0.2357
  -0.500  -0.0543   0.00534   0.00105  -0.0005  0.7093  0.6073  -0.4788   0.0000   0.2359
   0.000   0.0000   0.00532   0.00104  -0.0000  0.6589  0.6589  -0.4136   0.0000   0.4633
   0.500   0.0543   0.00534   0.00105   0.0005  0.6073  0.7093  -0.4788   0.0000   0.2359
   1.000   0.1085   0.00540   0.00110   0.0010  0.5550  0.7578  -0.5564   0.0000   0.2357
   1.500   0.1626   0.00551   0.00118   0.0016  0.5018  0.8034  -0.6499   0.0000   0.2352
   2.000   0.2164   0.00567   0.00130   0.0023  0.4481  0.8449  -0.7619   0.0000   0.2347
   2.500   0.2699   0.00590   0.00146   0.0030  0.3940  0.8815  -0.8943   0.0000   0.2339
   3.000   0.3229   0.00620   0.00165   0.0038  0.3398  0.9124  -1.0470   0.0000   0.2329
   3.500   0.3752   0.00657   0.00188   0.0048  0.2861  0.9383  -1.2208   0.0000   0.2318
   4.000   0.4276   0.00702   0.00215   0.0057  0.2341  0.9587  -1.4156   0.0000   0.2310
   4.500   0.4824   0.00753   0.00246   0.0060  0.1848  0.9744  -1.6380   0.0000   0.2316
   5.000   0.5440   0.00810   0.00283   0.0047  0.1405  0.9837  -1.8977   0.0000   0.2352
   5.500   0.6107   0.00870   0.00325   0.0021  0.1045  0.9891  -2.1943   0.0000   0.2401
   6.000   0.6793   0.00930   0.00370  -0.0009  0.0784  0.9926  -2.5238   0.0000   0.2445
   6.500   0.7474   0.00989   0.00418  -0.0038  0.0608  0.9958  -2.8826   0.0000   0.2479
   7.000   0.8160   0.01047   0.00470  -0.0068  0.0489  0.9984  -3.2652   0.0000   0.2508
   7.500   0.8743   0.01105   0.00524  -0.0077  0.0412  1.0000  -3.6479   0.0000   0.2508
   8.000   0.9158   0.01161   0.00578  -0.0050  0.0362  1.0000  -3.9861   0.0000   0.2469
   8.500   0.9579   0.01218   0.00636  -0.0024  0.0324  1.0000  -4.3505   0.0000   0.2434
   9.000   1.0004   0.01282   0.00701   0.0001  0.0292  1.0000  -4.7338   0.0000   0.2402
   9.500   1.0432   0.01352   0.00774   0.0024  0.0265  1.0000  -5.1294   0.0000   0.2374
  10.000   1.0866   0.01428   0.00852   0.0045  0.0244  1.0000  -5.5455   0.0000   0.2349
  10.500   1.1314   0.01504   0.00934   0.0063  0.0225  1.0000  -5.9961   0.0000   0.2329
  11.000   1.1746   0.01601   0.01036   0.0081  0.0209  1.0000  -6.4498   0.0000   0.2309
  11.500   1.2183   0.01691   0.01133   0.0098  0.0196  1.0000  -6.9216   0.0000   0.2290
  12.000   1.2580   0.01811   0.01261   0.0119  0.0185  1.0000  -7.3791   0.0000   0.2269
  12.500   1.2988   0.01913   0.01372   0.0138  0.0174  1.0000  -7.8639   0.0000   0.2250
  13.000   1.3307   0.02072   0.01538   0.0167  0.0164  1.0000  -8.3233   0.0000   0.2223
  13.500   1.3633   0.02194   0.01674   0.0196  0.0158  1.0000  -8.8011   0.0000   0.2196
  14.000   1.3877   0.02345   0.01837   0.0234  0.0152  1.0000  -9.2402   0.0000   0.2163
  14.500   1.4066   0.02548   0.02052   0.0269  0.0146  1.0000  -9.6491   0.0000   0.2132
  15.000   1.4124   0.02877   0.02397   0.0301  0.0142  1.0000  -9.9593   0.0000   0.2100
  15.500   1.4267   0.03193   0.02732   0.0316  0.0138  1.0000  -10.3301   0.0000   0.2082
  16.000   1.4348   0.03618   0.03176   0.0318  0.0134  1.0000  -10.6537   0.0000   0.2071
  16.500   1.4363   0.04183   0.03760   0.0304  0.0130  1.0000  -10.9195   0.0000   0.2069
  17.000   1.4276   0.04948   0.04546   0.0273  0.0128  1.0000  -11.0880   0.0000   0.2077
  17.500   1.4036   0.05994   0.05616   0.0222  0.0126  1.0000  -11.1004   0.0000   0.2098
  18.000   1.3638   0.07330   0.06978   0.0155  0.0125  1.0000  -10.9385   0.0000   0.2130
  18.500   1.3145   0.08874   0.08548   0.0076  0.0125  1.0000  -10.6454   0.0000   0.2174
  19.000   1.2650   0.10482   0.10181  -0.0009  0.0125  1.0000  -10.2984   0.0000   0.2227
  19.500   1.2237   0.12005   0.11724  -0.0095  0.0124  1.0000  -9.9811   0.0000   0.2286
  20.000   1.1929   0.13371   0.13104  -0.0177  0.0122  1.0000  -9.7315   0.0000   0.2346
  20.500   1.1692   0.14652   0.14401  -0.0260  0.0121  1.0000  -9.5095   0.0000   0.2409
  21.000   1.1484   0.15928   0.15695  -0.0348  0.0120  1.0000  -9.2649   0.0000   0.2479
  21.500   1.1265   0.17276   0.17061  -0.0445  0.0118  1.0000  -8.9318   0.0000   0.2562
  22.000   1.0935   0.18968   0.18775  -0.0570  0.0115  1.0000  -8.2864   0.0000   0.2682


