xflr5 v6.33

 Calculated polar for: NACA 0012-64

 1 1 Reynolds number fixed          Mach number fixed         

 xtrf =   1.000 (top)        1.000 (bottom)
 Mach =   0.000     Re =     1.300 e 6     Ncrit =   9.000

  alpha     CL        CD       CDp       Cm    Top Xtr Bot Xtr   Cpmin    Chinge    XCp    
 ------- -------- --------- --------- -------- ------- ------- -------- --------- ---------
 -26.500  -0.6030   0.26879   0.26748   0.0464  1.0000  0.0052  -1.3831   0.0000   0.3028
 -26.000  -0.5960   0.26436   0.26304   0.0437  1.0000  0.0054  -1.3118   0.0000   0.3001
 -25.500  -0.5892   0.25945   0.25811   0.0410  1.0000  0.0058  -1.2827   0.0000   0.2972
 -25.000  -0.5879   0.25078   0.24943   0.0379  1.0000  0.0065  -1.6043   0.0000   0.2919
 -24.500  -0.5794   0.24694   0.24558   0.0356  1.0000  0.0067  -1.4657   0.0000   0.2899
 -24.000  -0.5716   0.24260   0.24123   0.0330  1.0000  0.0069  -1.3828   0.0000   0.2870
 -23.500  -0.5647   0.23766   0.23628   0.0304  1.0000  0.0075  -1.3714   0.0000   0.2837
 -23.000  -0.5633   0.22982   0.22843   0.0275  1.0000  0.0082  -1.6429   0.0000   0.2786
 -22.500  -0.5546   0.22592   0.22453   0.0251  1.0000  0.0085  -1.5329   0.0000   0.2759
 -22.000  -0.5470   0.22140   0.21999   0.0226  1.0000  0.0089  -1.4822   0.0000   0.2726
 -21.500  -0.5501   0.21239   0.21098   0.0192  1.0000  0.0100  -1.8727   0.0000   0.2656
 -20.500  -1.1282   0.13699   0.13481  -0.0004  1.0000  0.0118  -10.5634   0.0000   0.2177
 -20.000  -1.2954   0.09764   0.09498  -0.0223  1.0000  0.0110  -12.6781   0.0000   0.2019
 -19.500  -1.3908   0.07310   0.06999  -0.0359  1.0000  0.0108  -13.6080   0.0000   0.1948
 -19.000  -1.4341   0.05927   0.05586  -0.0429  1.0000  0.0109  -13.8106   0.0000   0.1922
 -18.500  -1.4557   0.05008   0.04642  -0.0463  1.0000  0.0112  -13.7263   0.0000   0.1917
 -18.000  -1.4646   0.04348   0.03960  -0.0475  1.0000  0.0116  -13.4876   0.0000   0.1924
 -17.500  -1.4645   0.03849   0.03441  -0.0472  1.0000  0.0120  -13.1500   0.0000   0.1938
 -17.000  -1.4637   0.03403   0.02975  -0.0458  1.0000  0.0126  -12.8033   0.0000   0.1959
 -16.500  -1.4529   0.03079   0.02639  -0.0439  1.0000  0.0134  -12.3572   0.0000   0.1982
 -16.000  -1.4346   0.02836   0.02382  -0.0417  1.0000  0.0142  -11.8540   0.0000   0.2004
 -15.500  -1.4142   0.02623   0.02153  -0.0391  1.0000  0.0149  -11.3598   0.0000   0.2028
 -15.000  -1.3914   0.02436   0.01959  -0.0363  1.0000  0.0160  -10.8484   0.0000   0.2053
 -14.500  -1.3613   0.02307   0.01821  -0.0338  1.0000  0.0170  -10.2886   0.0000   0.2074
 -14.000  -1.3322   0.02177   0.01678  -0.0310  1.0000  0.0179  -9.7512   0.0000   0.2099
 -13.500  -1.2997   0.02075   0.01572  -0.0283  1.0000  0.0191  -9.1933   0.0000   0.2123
 -13.000  -1.2628   0.02008   0.01500  -0.0259  1.0000  0.0202  -8.6167   0.0000   0.2144
 -12.500  -1.2275   0.01947   0.01428  -0.0229  1.0000  0.0210  -8.0692   0.0000   0.2170
 -12.000  -1.2113   0.01833   0.01309  -0.0164  1.0000  0.0221  -7.6569   0.0000   0.2229
 -11.500  -1.1826   0.01781   0.01253  -0.0117  1.0000  0.0231  -7.1692   0.0000   0.2273
 -11.000  -1.1573   0.01729   0.01194  -0.0062  1.0000  0.0240  -6.7178   0.0000   0.2325
 -10.500  -1.1310   0.01684   0.01141  -0.0008  1.0000  0.0246  -6.2738   0.0000   0.2378
 -10.000  -1.0803   0.01552   0.01001  -0.0011  0.9980  0.0260  -5.7349   0.0000   0.2382
  -9.500  -1.0199   0.01484   0.00932  -0.0030  0.9961  0.0275  -5.1972   0.0000   0.2369
  -9.000  -0.9596   0.01413   0.00854  -0.0048  0.9940  0.0286  -4.7082   0.0000   0.2354
  -8.500  -0.9021   0.01317   0.00751  -0.0060  0.9908  0.0301  -4.2588   0.0000   0.2343
  -8.000  -0.8402   0.01236   0.00668  -0.0081  0.9887  0.0316  -3.8159   0.0000   0.2318
  -7.500  -0.7753   0.01172   0.00602  -0.0108  0.9873  0.0332  -3.4110   0.0000   0.2281
  -7.000  -0.7159   0.01111   0.00537  -0.0120  0.9830  0.0344  -3.0739   0.0000   0.2256
  -6.500  -0.6552   0.01037   0.00462  -0.0136  0.9796  0.0368  -2.7759   0.0000   0.2220
  -6.000  -0.5998   0.00989   0.00412  -0.0138  0.9730  0.0390  -2.5150   0.0000   0.2202
  -5.500  -0.5470   0.00938   0.00362  -0.0133  0.9656  0.0434  -2.2702   0.0000   0.2191
  -5.000  -0.4962   0.00890   0.00319  -0.0124  0.9570  0.0548  -2.0367   0.0000   0.2189
  -4.500  -0.4468   0.00840   0.00281  -0.0111  0.9468  0.0819  -1.8098   0.0000   0.2192
  -4.000  -0.3968   0.00794   0.00248  -0.0100  0.9360  0.1140  -1.5945   0.0000   0.2191
  -3.500  -0.3473   0.00740   0.00217  -0.0089  0.9240  0.1714  -1.3937   0.0000   0.2190
  -3.000  -0.2975   0.00684   0.00188  -0.0078  0.9118  0.2448  -1.1994   0.0000   0.2185
  -2.500  -0.2516   0.00598   0.00155  -0.0061  0.8986  0.3930  -1.0295   0.0000   0.2208
  -2.000  -0.2070   0.00511   0.00129  -0.0040  0.8846  0.5653  -0.8692   0.0000   0.2258
  -1.500  -0.1571   0.00471   0.00116  -0.0028  0.8704  0.6573  -0.7063   0.0000   0.2278
  -1.000  -0.1054   0.00448   0.00109  -0.0018  0.8520  0.7177  -0.5474   0.0000   0.2286
  -0.500  -0.0532   0.00436   0.00104  -0.0008  0.8261  0.7645  -0.4259   0.0000   0.2312
   0.000  -0.0000   0.00435   0.00102   0.0000  0.7963  0.7963  -0.3379   0.0000   0.5981
   0.500   0.0532   0.00436   0.00104   0.0008  0.7646  0.8261  -0.4259   0.0000   0.2312
   1.000   0.1054   0.00448   0.00109   0.0018  0.7177  0.8520  -0.5474   0.0000   0.2286
   1.500   0.1571   0.00471   0.00116   0.0028  0.6573  0.8704  -0.7063   0.0000   0.2278
   2.000   0.2070   0.00511   0.00129   0.0040  0.5653  0.8846  -0.8692   0.0000   0.2258
   2.500   0.2517   0.00598   0.00155   0.0061  0.3929  0.8986  -1.0295   0.0000   0.2208
   3.000   0.2975   0.00684   0.00188   0.0078  0.2448  0.9118  -1.1994   0.0000   0.2186
   3.500   0.3473   0.00740   0.00217   0.0089  0.1714  0.9240  -1.3938   0.0000   0.2191
   4.000   0.3969   0.00794   0.00248   0.0100  0.1140  0.9360  -1.5946   0.0000   0.2192
   4.500   0.4468   0.00840   0.00281   0.0111  0.0819  0.9468  -1.8099   0.0000   0.2192
   5.000   0.4963   0.00890   0.00319   0.0124  0.0548  0.9570  -2.0368   0.0000   0.2189
   5.500   0.5470   0.00938   0.00362   0.0133  0.0434  0.9656  -2.2703   0.0000   0.2191
   6.000   0.5999   0.00989   0.00412   0.0138  0.0390  0.9730  -2.5152   0.0000   0.2202
   6.500   0.6553   0.01037   0.00462   0.0136  0.0368  0.9796  -2.7761   0.0000   0.2220
   7.000   0.7160   0.01111   0.00537   0.0120  0.0344  0.9831  -3.0741   0.0000   0.2256
   7.500   0.7754   0.01172   0.00602   0.0107  0.0332  0.9873  -3.4114   0.0000   0.2281
   8.000   0.8403   0.01236   0.00668   0.0081  0.0316  0.9887  -3.8163   0.0000   0.2318
   8.500   0.9022   0.01317   0.00751   0.0060  0.0301  0.9908  -4.2593   0.0000   0.2343
   9.000   0.9597   0.01413   0.00853   0.0048  0.0286  0.9940  -4.7087   0.0000   0.2354
   9.500   1.0200   0.01484   0.00931   0.0030  0.0275  0.9961  -5.1980   0.0000   0.2369
  10.000   1.0805   0.01552   0.01001   0.0011  0.0260  0.9980  -5.7358   0.0000   0.2382
  10.500   1.1309   0.01684   0.01141   0.0009  0.0246  1.0000  -6.2731   0.0000   0.2378
  11.000   1.1572   0.01729   0.01193   0.0062  0.0240  1.0000  -6.7173   0.0000   0.2325
  11.500   1.1826   0.01781   0.01253   0.0117  0.0231  1.0000  -7.1692   0.0000   0.2273
  12.000   1.2114   0.01833   0.01308   0.0163  0.0221  1.0000  -7.6578   0.0000   0.2229
  12.500   1.2278   0.01948   0.01429   0.0229  0.0210  1.0000  -8.0707   0.0000   0.2170
  13.000   1.2635   0.02008   0.01500   0.0258  0.0202  1.0000  -8.6205   0.0000   0.2145
  13.500   1.3005   0.02074   0.01572   0.0281  0.0191  1.0000  -9.1979   0.0000   0.2124
  14.000   1.3329   0.02177   0.01678   0.0308  0.0179  1.0000  -9.7557   0.0000   0.2100
  14.500   1.3623   0.02307   0.01820   0.0337  0.0170  1.0000  -10.2948   0.0000   0.2076
  15.000   1.3925   0.02435   0.01958   0.0361  0.0160  1.0000  -10.8557   0.0000   0.2054
  15.500   1.4152   0.02623   0.02153   0.0389  0.0149  1.0000  -11.3665   0.0000   0.2029
  16.000   1.4360   0.02834   0.02380   0.0414  0.0141  1.0000  -11.8635   0.0000   0.2005
  16.500   1.4544   0.03077   0.02636   0.0436  0.0133  1.0000  -12.3684   0.0000   0.1983
  17.000   1.4652   0.03401   0.02973   0.0456  0.0126  1.0000  -12.8146   0.0000   0.1961
  17.500   1.4664   0.03845   0.03436   0.0470  0.0120  1.0000  -13.1650   0.0000   0.1940
  18.000   1.4667   0.04342   0.03954   0.0472  0.0116  1.0000  -13.5047   0.0000   0.1926
  18.500   1.4580   0.05000   0.04634   0.0461  0.0112  1.0000  -13.7455   0.0000   0.1919
  19.000   1.4366   0.05918   0.05577   0.0426  0.0109  1.0000  -13.8317   0.0000   0.1924
  19.500   1.3934   0.07300   0.06988   0.0356  0.0108  1.0000  -13.6310   0.0000   0.1951
  20.000   1.2983   0.09751   0.09485   0.0220  0.0110  1.0000  -12.7043   0.0000   0.2022
  20.500   1.1299   0.13712   0.13495  -0.0000  0.0118  1.0000  -10.5730   0.0000   0.2181
  21.000   1.0421   0.16450   0.16259  -0.0166  0.0118  1.0000  -9.2319   0.0000   0.2332
  27.000   0.9956   0.31899   0.31745  -0.1132  0.0044  1.0000  -2.2127   0.0000   0.3246
  27.500   1.0102   0.32396   0.32243  -0.1182  0.0042  1.0000  -2.2866   0.0000   0.3266
  28.000   1.0244   0.32845   0.32693  -0.1231  0.0040  1.0000  -2.3997   0.0000   0.3283
  28.500   1.0379   0.33245   0.33094  -0.1278  0.0040  1.0000  -2.5588   0.0000   0.3296
  29.000   1.0533   0.34102   0.33951  -0.1338  0.0037  1.0000  -2.1995   0.0000   0.3327
  29.500   1.0673   0.34626   0.34476  -0.1390  0.0033  1.0000  -2.2003   0.0000   0.3345
  30.000   1.0806   0.35097   0.34948  -0.1442  0.0031  1.0000  -2.2649   0.0000   0.3362
  30.500   1.0935   0.35527   0.35379  -0.1494  0.0030  1.0000  -2.3649   0.0000   0.3377
  31.000   1.1055   0.35912   0.35765  -0.1546  0.0030  1.0000  -2.4998   0.0000   0.3391
  31.500   1.1184   0.36492   0.36346  -0.1602  0.0029  1.0000  -2.4031   0.0000   0.3411
  32.000   1.1325   0.37160   0.37015  -0.1658  0.0026  1.0000  -2.2179   0.0000   0.3429
  32.500   1.1445   0.37617   0.37473  -0.1712  0.0024  1.0000  -2.2455   0.0000   0.3445
  33.000   1.1559   0.38039   0.37896  -0.1767  0.0022  1.0000  -2.3180   0.0000   0.3459
  33.500   1.1666   0.38423   0.38282  -0.1821  0.0022  1.0000  -2.4164   0.0000   0.3473
  34.000   1.1764   0.38762   0.38623  -0.1875  0.0021  1.0000  -2.5460   0.0000   0.3485
  34.500   1.1881   0.39337   0.39198  -0.1933  0.0021  1.0000  -2.4183   0.0000   0.3502
  35.000   1.2002   0.39915   0.39777  -0.1990  0.0018  1.0000  -2.2674   0.0000   0.3516
  35.500   1.2102   0.40330   0.40193  -0.2046  0.0017  1.0000  -2.2792   0.0000   0.3530
  36.000   1.2195   0.40716   0.40581  -0.2103  0.0015  1.0000  -2.3153   0.0000   0.3542
  36.500   1.2281   0.41069   0.40935  -0.2160  0.0015  1.0000  -2.3762   0.0000   0.3554
  37.000   1.2359   0.41383   0.41251  -0.2216  0.0014  1.0000  -2.4784   0.0000   0.3566


