xflr5 v6.33

 Calculated polar for: NACA 0012-64

 1 1 Reynolds number fixed          Mach number fixed         

 xtrf =   1.000 (top)        1.000 (bottom)
 Mach =   0.000     Re =     2.300 e 6     Ncrit =   9.000

  alpha     CL        CD       CDp       Cm    Top Xtr Bot Xtr   Cpmin    Chinge    XCp    
 ------- -------- --------- --------- -------- ------- ------- -------- --------- ---------
 -23.500  -0.9682   0.23146   0.23019   0.0614  1.0000  0.0070  -7.1641   0.0000   0.2768
 -23.000  -0.9799   0.21752   0.21619   0.0519  1.0000  0.0077  -7.7217   0.0000   0.2669
 -22.500  -1.0030   0.20106   0.19960   0.0409  1.0000  0.0082  -8.4517   0.0000   0.2552
 -22.000  -1.0373   0.18303   0.18148   0.0288  1.0000  0.0088  -9.2461   0.0000   0.2428
 -21.500  -1.1537   0.14819   0.14632   0.0064  1.0000  0.0087  -11.2771   0.0000   0.2211
 -21.000  -1.4336   0.08829   0.08561  -0.0278  1.0000  0.0077  -15.0684   0.0000   0.1973
 -20.500  -1.5093   0.06858   0.06553  -0.0385  1.0000  0.0076  -15.7120   0.0000   0.1929
 -20.000  -1.5451   0.05675   0.05344  -0.0439  1.0000  0.0077  -15.7896   0.0000   0.1915
 -19.500  -1.5628   0.04848   0.04495  -0.0465  1.0000  0.0079  -15.6239   0.0000   0.1916
 -19.000  -1.5694   0.04235   0.03863  -0.0473  1.0000  0.0081  -15.3180   0.0000   0.1925
 -18.500  -1.5745   0.03700   0.03309  -0.0468  1.0000  0.0084  -15.0048   0.0000   0.1942
 -18.000  -1.5744   0.03264   0.02857  -0.0451  1.0000  0.0089  -14.6312   0.0000   0.1965
 -17.500  -1.5657   0.02934   0.02514  -0.0429  1.0000  0.0093  -14.1720   0.0000   0.1989
 -17.000  -1.5505   0.02677   0.02243  -0.0404  1.0000  0.0098  -13.6566   0.0000   0.2014
 -16.500  -1.5322   0.02457   0.02010  -0.0375  1.0000  0.0103  -13.1207   0.0000   0.2040
 -16.000  -1.5130   0.02254   0.01797  -0.0342  1.0000  0.0112  -12.5843   0.0000   0.2068
 -15.500  -1.4877   0.02099   0.01633  -0.0311  1.0000  0.0120  -12.0253   0.0000   0.2095
 -15.000  -1.4607   0.01959   0.01486  -0.0279  1.0000  0.0130  -11.4638   0.0000   0.2123
 -14.500  -1.4301   0.01847   0.01369  -0.0248  1.0000  0.0142  -10.8823   0.0000   0.2149
 -14.000  -1.3982   0.01751   0.01266  -0.0216  1.0000  0.0152  -10.3038   0.0000   0.2177
 -13.500  -1.3670   0.01669   0.01181  -0.0179  1.0000  0.0164  -9.7393   0.0000   0.2209
 -13.000  -1.3369   0.01609   0.01116  -0.0136  1.0000  0.0173  -9.1920   0.0000   0.2246
 -12.500  -1.3096   0.01544   0.01046  -0.0087  1.0000  0.0183  -8.6779   0.0000   0.2290
 -12.000  -1.2843   0.01495   0.00996  -0.0031  1.0000  0.0193  -8.1836   0.0000   0.2340
 -11.500  -1.2305   0.01445   0.00944  -0.0036  0.9989  0.0204  -7.5345   0.0000   0.2342
 -11.000  -1.1718   0.01388   0.00884  -0.0050  0.9973  0.0211  -6.8846   0.0000   0.2335
 -10.500  -1.1141   0.01309   0.00803  -0.0064  0.9959  0.0226  -6.2703   0.0000   0.2328
 -10.000  -1.0545   0.01254   0.00747  -0.0080  0.9945  0.0236  -5.6755   0.0000   0.2316
  -9.500  -0.9957   0.01204   0.00696  -0.0093  0.9920  0.0244  -5.1507   0.0000   0.2305
  -9.000  -0.9357   0.01137   0.00625  -0.0109  0.9901  0.0255  -4.6655   0.0000   0.2287
  -8.500  -0.8755   0.01073   0.00560  -0.0126  0.9879  0.0269  -4.1975   0.0000   0.2266
  -8.000  -0.8206   0.01026   0.00512  -0.0128  0.9825  0.0280  -3.7852   0.0000   0.2259
  -7.500  -0.7671   0.00986   0.00471  -0.0126  0.9764  0.0289  -3.4137   0.0000   0.2255
  -7.000  -0.7180   0.00935   0.00415  -0.0114  0.9682  0.0301  -3.1110   0.0000   0.2265
  -6.500  -0.6686   0.00892   0.00370  -0.0102  0.9590  0.0318  -2.8429   0.0000   0.2276
  -6.000  -0.6172   0.00856   0.00333  -0.0094  0.9497  0.0332  -2.5821   0.0000   0.2280
  -5.500  -0.5650   0.00824   0.00298  -0.0088  0.9399  0.0350  -2.3291   0.0000   0.2281
  -5.000  -0.5126   0.00789   0.00265  -0.0082  0.9298  0.0394  -2.0832   0.0000   0.2280
  -4.500  -0.4607   0.00747   0.00231  -0.0075  0.9185  0.0574  -1.8479   0.0000   0.2280
  -4.000  -0.4080   0.00712   0.00204  -0.0070  0.9063  0.0801  -1.6208   0.0000   0.2274
  -3.500  -0.3550   0.00677   0.00180  -0.0065  0.8939  0.1088  -1.4113   0.0000   0.2263
  -3.000  -0.3027   0.00637   0.00157  -0.0060  0.8804  0.1605  -1.2107   0.0000   0.2252
  -2.500  -0.2503   0.00597   0.00137  -0.0054  0.8661  0.2211  -1.0281   0.0000   0.2233
  -2.000  -0.2005   0.00537   0.00114  -0.0044  0.8505  0.3358  -0.8599   0.0000   0.2230
  -1.500  -0.1543   0.00458   0.00090  -0.0028  0.8290  0.5099  -0.7036   0.0000   0.2276
  -1.000  -0.1039   0.00425   0.00078  -0.0017  0.7994  0.6035  -0.5469   0.0000   0.2294
  -0.500  -0.0519   0.00407   0.00073  -0.0009  0.7678  0.6703  -0.4252   0.0000   0.2289
   0.000   0.0000   0.00395   0.00071  -0.0000  0.7335  0.7335  -0.3384   0.0000   0.4736
   0.500   0.0519   0.00407   0.00072   0.0009  0.6703  0.7678  -0.4252   0.0000   0.2289
   1.000   0.1039   0.00425   0.00078   0.0017  0.6035  0.7994  -0.5469   0.0000   0.2294
   1.500   0.1543   0.00458   0.00090   0.0028  0.5099  0.8290  -0.7036   0.0000   0.2276
   2.000   0.2005   0.00537   0.00114   0.0044  0.3358  0.8505  -0.8599   0.0000   0.2231
   2.500   0.2503   0.00597   0.00137   0.0054  0.2210  0.8661  -1.0281   0.0000   0.2234
   3.000   0.3027   0.00637   0.00157   0.0060  0.1605  0.8804  -1.2108   0.0000   0.2252
   3.500   0.3551   0.00677   0.00180   0.0065  0.1088  0.8939  -1.4113   0.0000   0.2264
   4.000   0.4080   0.00712   0.00204   0.0070  0.0801  0.9063  -1.6208   0.0000   0.2274
   4.500   0.4608   0.00747   0.00231   0.0075  0.0574  0.9185  -1.8480   0.0000   0.2280
   5.000   0.5126   0.00789   0.00265   0.0082  0.0394  0.9298  -2.0834   0.0000   0.2280
   5.500   0.5651   0.00824   0.00298   0.0088  0.0350  0.9399  -2.3292   0.0000   0.2281
   6.000   0.6173   0.00856   0.00333   0.0094  0.0332  0.9497  -2.5823   0.0000   0.2280
   6.500   0.6687   0.00892   0.00370   0.0102  0.0318  0.9590  -2.8432   0.0000   0.2276
   7.000   0.7182   0.00935   0.00415   0.0114  0.0301  0.9682  -3.1113   0.0000   0.2266
   7.500   0.7673   0.00986   0.00471   0.0126  0.0289  0.9764  -3.4140   0.0000   0.2255
   8.000   0.8207   0.01026   0.00512   0.0128  0.0280  0.9825  -3.7856   0.0000   0.2259
   8.500   0.8756   0.01073   0.00560   0.0125  0.0269  0.9879  -4.1979   0.0000   0.2266
   9.000   0.9358   0.01137   0.00625   0.0109  0.0255  0.9901  -4.6660   0.0000   0.2288
   9.500   0.9958   0.01204   0.00695   0.0093  0.0244  0.9920  -5.1513   0.0000   0.2305
  10.000   1.0547   0.01253   0.00747   0.0080  0.0236  0.9945  -5.6761   0.0000   0.2316
  10.500   1.1143   0.01309   0.00803   0.0064  0.0226  0.9959  -6.2714   0.0000   0.2328
  11.000   1.1720   0.01388   0.00884   0.0050  0.0211  0.9974  -6.8857   0.0000   0.2336
  11.500   1.2307   0.01445   0.00944   0.0035  0.0204  0.9989  -7.5359   0.0000   0.2343
  12.000   1.2842   0.01495   0.00996   0.0031  0.0193  1.0000  -8.1827   0.0000   0.2339
  12.500   1.3096   0.01544   0.01046   0.0087  0.0183  1.0000  -8.6777   0.0000   0.2290
  13.000   1.3371   0.01608   0.01116   0.0136  0.0173  1.0000  -9.1929   0.0000   0.2246
  13.500   1.3676   0.01669   0.01181   0.0178  0.0164  1.0000  -9.7426   0.0000   0.2210
  14.000   1.3988   0.01751   0.01265   0.0215  0.0152  1.0000  -10.3078   0.0000   0.2178
  14.500   1.4309   0.01847   0.01369   0.0247  0.0142  1.0000  -10.8873   0.0000   0.2150
  15.000   1.4616   0.01959   0.01486   0.0277  0.0130  1.0000  -11.4695   0.0000   0.2124
  15.500   1.4887   0.02098   0.01633   0.0310  0.0119  1.0000  -12.0321   0.0000   0.2096
  16.000   1.5141   0.02253   0.01797   0.0340  0.0112  1.0000  -12.5921   0.0000   0.2070
  16.500   1.5334   0.02457   0.02010   0.0373  0.0103  1.0000  -13.1294   0.0000   0.2041
  17.000   1.5519   0.02675   0.02241   0.0402  0.0098  1.0000  -13.6677   0.0000   0.2015
  17.500   1.5672   0.02932   0.02512   0.0427  0.0093  1.0000  -14.1844   0.0000   0.1991
  18.000   1.5760   0.03261   0.02854   0.0449  0.0089  1.0000  -14.6450   0.0000   0.1967
  18.500   1.5763   0.03698   0.03307   0.0465  0.0084  1.0000  -15.0190   0.0000   0.1945
  19.000   1.5717   0.04227   0.03855   0.0470  0.0081  1.0000  -15.3392   0.0000   0.1928
  19.500   1.5653   0.04838   0.04485   0.0462  0.0079  1.0000  -15.6474   0.0000   0.1918
  20.000   1.5478   0.05663   0.05332   0.0436  0.0077  1.0000  -15.8156   0.0000   0.1917
  20.500   1.5123   0.06843   0.06538   0.0382  0.0076  1.0000  -15.7410   0.0000   0.1931
  21.000   1.4373   0.08805   0.08536   0.0275  0.0077  1.0000  -15.1061   0.0000   0.1976
  21.500   1.1543   0.14860   0.14673  -0.0070  0.0087  1.0000  -11.2684   0.0000   0.2216
  22.000   1.0382   0.18353   0.18198  -0.0293  0.0088  1.0000  -9.2397   0.0000   0.2433
  22.500   1.0048   0.20146   0.20000  -0.0413  0.0082  1.0000  -8.4607   0.0000   0.2555
  23.000   0.9813   0.21817   0.21683  -0.0524  0.0077  1.0000  -7.7207   0.0000   0.2674
  23.500   0.9700   0.23211   0.23084  -0.0618  0.0070  1.0000  -7.1741   0.0000   0.2771


