xflr5 v6.33

 Calculated polar for: NACA 0012 v1

 1 1 Reynolds number fixed          Mach number fixed         

 xtrf =   1.000 (top)        1.000 (bottom)
 Mach =   0.000     Re =     2.100 e 6     Ncrit =   9.000

  alpha     CL        CD       CDp       Cm    Top Xtr Bot Xtr   Cpmin    Chinge    XCp    
 ------- -------- --------- --------- -------- ------- ------- -------- --------- ---------
 -24.000  -1.1283   0.21624   0.21468   0.0797  1.0000  0.0085  -8.8066   0.0000   0.2814
 -23.500  -1.1311   0.20688   0.20527   0.0718  1.0000  0.0089  -8.9748   0.0000   0.2753
 -23.000  -1.1378   0.19658   0.19490   0.0635  1.0000  0.0092  -9.1798   0.0000   0.2686
 -22.500  -1.1487   0.18548   0.18371   0.0548  1.0000  0.0094  -9.4146   0.0000   0.2614
 -22.000  -1.1656   0.17325   0.17136   0.0455  1.0000  0.0096  -9.7008   0.0000   0.2537
 -21.500  -1.1911   0.15950   0.15747   0.0355  1.0000  0.0097  -10.0591   0.0000   0.2455
 -21.000  -1.2322   0.14302   0.14081   0.0241  1.0000  0.0098  -10.5642   0.0000   0.2363
 -20.500  -1.2975   0.12269   0.12024   0.0113  1.0000  0.0098  -11.2799   0.0000   0.2264
 -20.000  -1.3866   0.09934   0.09657  -0.0019  1.0000  0.0097  -12.1410   0.0000   0.2175
 -19.500  -1.4688   0.07846   0.07536  -0.0129  1.0000  0.0096  -12.8061   0.0000   0.2114
 -19.000  -1.5239   0.06288   0.05948  -0.0207  1.0000  0.0096  -13.1169   0.0000   0.2079
 -18.500  -1.5555   0.05158   0.04794  -0.0261  1.0000  0.0097  -13.1533   0.0000   0.2061
 -18.000  -1.5699   0.04330   0.03945  -0.0294  1.0000  0.0099  -13.0032   0.0000   0.2055
 -17.500  -1.5723   0.03718   0.03314  -0.0310  1.0000  0.0100  -12.7290   0.0000   0.2057
 -17.000  -1.5659   0.03266   0.02845  -0.0312  1.0000  0.0102  -12.3816   0.0000   0.2067
 -16.500  -1.5621   0.02850   0.02412  -0.0299  1.0000  0.0105  -12.0602   0.0000   0.2086
 -16.000  -1.5521   0.02543   0.02091  -0.0274  1.0000  0.0108  -11.6816   0.0000   0.2112
 -15.500  -1.5334   0.02333   0.01870  -0.0244  1.0000  0.0112  -11.2336   0.0000   0.2139
 -15.000  -1.5099   0.02173   0.01700  -0.0210  1.0000  0.0116  -10.7558   0.0000   0.2168
 -14.500  -1.4827   0.02049   0.01566  -0.0175  1.0000  0.0120  -10.2582   0.0000   0.2198
 -14.000  -1.4524   0.01913   0.01420  -0.0143  1.0000  0.0125  -9.7592   0.0000   0.2227
 -13.500  -1.4155   0.01795   0.01296  -0.0121  1.0000  0.0132  -9.2247   0.0000   0.2249
 -13.000  -1.3741   0.01700   0.01194  -0.0103  1.0000  0.0138  -8.6749   0.0000   0.2267
 -12.500  -1.3315   0.01605   0.01092  -0.0087  1.0000  0.0145  -8.1353   0.0000   0.2285
 -12.000  -1.2881   0.01511   0.00995  -0.0071  1.0000  0.0155  -7.6234   0.0000   0.2303
 -11.500  -1.2417   0.01442   0.00920  -0.0058  1.0000  0.0164  -7.1097   0.0000   0.2319
 -11.000  -1.1968   0.01357   0.00833  -0.0042  1.0000  0.0177  -6.6224   0.0000   0.2338
 -10.500  -1.1502   0.01297   0.00768  -0.0028  1.0000  0.0188  -6.1370   0.0000   0.2356
 -10.000  -1.1062   0.01226   0.00697  -0.0008  1.0000  0.0206  -5.6808   0.0000   0.2380
  -9.500  -1.0623   0.01168   0.00638   0.0014  1.0000  0.0224  -5.2506   0.0000   0.2406
  -9.000  -1.0193   0.01117   0.00585   0.0038  1.0000  0.0244  -4.8441   0.0000   0.2436
  -8.500  -0.9759   0.01068   0.00535   0.0061  0.9999  0.0269  -4.4491   0.0000   0.2468
  -8.000  -0.9115   0.01009   0.00480   0.0039  0.9981  0.0310  -3.9947   0.0000   0.2454
  -7.500  -0.8457   0.00958   0.00432   0.0015  0.9962  0.0361  -3.5695   0.0000   0.2433
  -7.000  -0.7803   0.00907   0.00386  -0.0009  0.9937  0.0432  -3.1655   0.0000   0.2410
  -6.500  -0.7147   0.00856   0.00342  -0.0032  0.9907  0.0532  -2.7959   0.0000   0.2380
  -6.000  -0.6519   0.00809   0.00303  -0.0048  0.9852  0.0666  -2.4575   0.0000   0.2355
  -5.500  -0.5950   0.00764   0.00268  -0.0051  0.9746  0.0845  -2.1588   0.0000   0.2347
  -5.000  -0.5422   0.00723   0.00236  -0.0043  0.9583  0.1081  -1.8963   0.0000   0.2356
  -3.500  -0.3841   0.00612   0.00154  -0.0020  0.8822  0.2204  -1.2358   0.0000   0.2393
  -3.000  -0.3303   0.00583   0.00133  -0.0015  0.8465  0.2681  -1.0583   0.0000   0.2402
  -2.500  -0.2760   0.00561   0.00117  -0.0011  0.8064  0.3179  -0.9019   0.0000   0.2410
  -2.000  -0.2213   0.00544   0.00104  -0.0008  0.7622  0.3685  -0.7671   0.0000   0.2417
  -1.500  -0.1663   0.00531   0.00094  -0.0005  0.7158  0.4194  -0.6531   0.0000   0.2422
  -1.000  -0.1110   0.00523   0.00087  -0.0003  0.6678  0.4699  -0.5580   0.0000   0.2425
  -0.500  -0.0555   0.00517   0.00083  -0.0001  0.6190  0.5200  -0.4794   0.0000   0.2428
   0.000  -0.0000   0.00516   0.00082  -0.0000  0.5697  0.5697  -0.4133   0.0000   0.4282
   0.500   0.0555   0.00517   0.00083   0.0001  0.5200  0.6190  -0.4794   0.0000   0.2428
   1.000   0.1110   0.00523   0.00087   0.0003  0.4699  0.6678  -0.5580   0.0000   0.2426
   1.500   0.1663   0.00531   0.00094   0.0005  0.4194  0.7157  -0.6531   0.0000   0.2422
   2.000   0.2213   0.00544   0.00104   0.0008  0.3685  0.7622  -0.7671   0.0000   0.2417
   2.500   0.2760   0.00561   0.00117   0.0011  0.3179  0.8063  -0.9019   0.0000   0.2410
   3.000   0.3303   0.00583   0.00133   0.0015  0.2681  0.8465  -1.0583   0.0000   0.2402
   3.500   0.3841   0.00612   0.00154   0.0021  0.2204  0.8822  -1.2359   0.0000   0.2393
   4.000   0.4374   0.00645   0.00178   0.0027  0.1766  0.9125  -1.4352   0.0000   0.2382
   4.500   0.4902   0.00682   0.00206   0.0035  0.1387  0.9379  -1.6558   0.0000   0.2370
   5.000   0.5423   0.00723   0.00236   0.0045  0.1080  0.9583  -1.8963   0.0000   0.2356
   5.500   0.5950   0.00764   0.00268   0.0052  0.0844  0.9746  -2.1589   0.0000   0.2347
   6.000   0.6520   0.00809   0.00303   0.0050  0.0666  0.9852  -2.4575   0.0000   0.2355
   6.500   0.7147   0.00856   0.00342   0.0034  0.0532  0.9907  -2.7960   0.0000   0.2380
   7.000   0.7804   0.00907   0.00386   0.0011  0.0432  0.9937  -3.1657   0.0000   0.2410
   7.500   0.8458   0.00958   0.00432  -0.0012  0.0361  0.9962  -3.5697   0.0000   0.2434
   8.000   0.9116   0.01009   0.00480  -0.0036  0.0310  0.9981  -3.9948   0.0000   0.2454
   8.500   0.9760   0.01068   0.00535  -0.0058  0.0269  0.9999  -4.4494   0.0000   0.2468
   9.000   1.0192   0.01117   0.00585  -0.0034  0.0244  1.0000  -4.8437   0.0000   0.2436
   9.500   1.0622   0.01168   0.00638  -0.0009  0.0224  1.0000  -5.2503   0.0000   0.2406
  10.000   1.1062   0.01226   0.00697   0.0013  0.0206  1.0000  -5.6807   0.0000   0.2380
  10.500   1.1502   0.01297   0.00768   0.0033  0.0188  1.0000  -6.1371   0.0000   0.2356
  11.000   1.1969   0.01357   0.00833   0.0048  0.0177  1.0000  -6.6227   0.0000   0.2338
  11.500   1.2418   0.01442   0.00920   0.0064  0.0164  1.0000  -7.1101   0.0000   0.2319
  12.000   1.2882   0.01511   0.00995   0.0077  0.0155  1.0000  -7.6240   0.0000   0.2304
  12.500   1.3317   0.01605   0.01092   0.0093  0.0145  1.0000  -8.1362   0.0000   0.2286
  13.000   1.3743   0.01700   0.01194   0.0110  0.0138  1.0000  -8.6760   0.0000   0.2267
  13.500   1.4157   0.01795   0.01296   0.0128  0.0132  1.0000  -9.2261   0.0000   0.2249
  14.000   1.4527   0.01913   0.01420   0.0151  0.0125  1.0000  -9.7609   0.0000   0.2227
  14.500   1.4832   0.02049   0.01566   0.0183  0.0120  1.0000  -10.2612   0.0000   0.2199
  15.000   1.5105   0.02173   0.01700   0.0219  0.0116  1.0000  -10.7594   0.0000   0.2169
  15.500   1.5341   0.02333   0.01870   0.0252  0.0112  1.0000  -11.2379   0.0000   0.2140
  16.000   1.5528   0.02543   0.02090   0.0283  0.0108  1.0000  -11.6866   0.0000   0.2112
  16.500   1.5629   0.02850   0.02411   0.0308  0.0105  1.0000  -12.0655   0.0000   0.2087
  17.000   1.5671   0.03263   0.02842   0.0321  0.0102  1.0000  -12.3897   0.0000   0.2068
  17.500   1.5736   0.03714   0.03310   0.0320  0.0100  1.0000  -12.7388   0.0000   0.2058
  18.000   1.5714   0.04324   0.03939   0.0304  0.0099  1.0000  -13.0147   0.0000   0.2056
  18.500   1.5572   0.05150   0.04786   0.0271  0.0097  1.0000  -13.1671   0.0000   0.2062
  19.000   1.5259   0.06277   0.05938   0.0217  0.0096  1.0000  -13.1332   0.0000   0.2080
  19.500   1.4710   0.07834   0.07523   0.0138  0.0096  1.0000  -12.8244   0.0000   0.2115
  20.000   1.3887   0.09923   0.09646   0.0028  0.0097  1.0000  -12.1594   0.0000   0.2176
  20.500   1.2993   0.12267   0.12022  -0.0106  0.0098  1.0000  -11.2940   0.0000   0.2266
  21.000   1.2335   0.14307   0.14087  -0.0236  0.0098  1.0000  -10.5740   0.0000   0.2365
  21.500   1.1923   0.15959   0.15757  -0.0350  0.0097  1.0000  -10.0667   0.0000   0.2457
  22.000   1.1668   0.17339   0.17151  -0.0450  0.0096  1.0000  -9.7073   0.0000   0.2539
  22.500   1.1499   0.18567   0.18389  -0.0544  0.0094  1.0000  -9.4211   0.0000   0.2616
  23.000   1.1390   0.19681   0.19513  -0.0631  0.0092  1.0000  -9.1859   0.0000   0.2687
  23.500   1.1324   0.20719   0.20558  -0.0715  0.0089  1.0000  -8.9818   0.0000   0.2755
  24.000   1.1294   0.21670   0.21514  -0.0795  0.0085  1.0000  -8.8094   0.0000   0.2816


