xflr5 v6.33

 Calculated polar for: NACA 0012 v1

 1 1 Reynolds number fixed          Mach number fixed         

 xtrf =   1.000 (top)        1.000 (bottom)
 Mach =   0.000     Re =     4.700 e 6     Ncrit =   9.000

  alpha     CL        CD       CDp       Cm    Top Xtr Bot Xtr   Cpmin    Chinge    XCp    
 ------- -------- --------- --------- -------- ------- ------- -------- --------- ---------
 -27.500  -1.1479   0.27584   0.27496   0.1316  1.0000  0.0050  -7.7291   0.0000   0.3183
 -27.000  -1.1589   0.26199   0.26100   0.1206  1.0000  0.0054  -8.5350   0.0000   0.3079
 -26.500  -1.1555   0.25393   0.25289   0.1132  1.0000  0.0057  -8.7074   0.0000   0.3029
 -26.000  -1.1544   0.24532   0.24425   0.1055  1.0000  0.0060  -8.9150   0.0000   0.2973
 -25.500  -1.1552   0.23604   0.23491   0.0974  1.0000  0.0063  -9.1378   0.0000   0.2913
 -25.000  -1.1599   0.22602   0.22483   0.0887  1.0000  0.0065  -9.4120   0.0000   0.2844
 -24.500  -1.1671   0.21544   0.21417   0.0797  1.0000  0.0067  -9.6895   0.0000   0.2772
 -24.000  -1.1817   0.20330   0.20192   0.0696  1.0000  0.0068  -10.0711   0.0000   0.2688
 -23.500  -1.2101   0.18826   0.18675   0.0575  1.0000  0.0069  -10.6397   0.0000   0.2582
 -23.000  -1.2784   0.16538   0.16362   0.0398  1.0000  0.0069  -11.7651   0.0000   0.2425
 -22.500  -1.3913   0.13560   0.13347   0.0185  1.0000  0.0069  -13.2989   0.0000   0.2256
 -22.000  -1.5078   0.10778   0.10528   0.0012  1.0000  0.0068  -14.5860   0.0000   0.2144
 -21.500  -1.6018   0.08555   0.08272  -0.0108  1.0000  0.0068  -15.4251   0.0000   0.2083
 -21.000  -1.6659   0.06901   0.06591  -0.0190  1.0000  0.0068  -15.8443   0.0000   0.2051
 -20.500  -1.7054   0.05682   0.05350  -0.0247  1.0000  0.0068  -15.9548   0.0000   0.2035
 -20.000  -1.7273   0.04767   0.04416  -0.0284  1.0000  0.0068  -15.8569   0.0000   0.2030
 -19.500  -1.7362   0.04071   0.03703  -0.0306  1.0000  0.0069  -15.6133   0.0000   0.2032
 -19.000  -1.7438   0.03448   0.03063  -0.0316  1.0000  0.0071  -15.3528   0.0000   0.2040
 -18.500  -1.7416   0.02992   0.02594  -0.0311  1.0000  0.0074  -14.9878   0.0000   0.2055
 -18.000  -1.7313   0.02660   0.02252  -0.0295  1.0000  0.0077  -14.5443   0.0000   0.2075
 -17.500  -1.7156   0.02409   0.01991  -0.0272  1.0000  0.0079  -14.0534   0.0000   0.2098
 -17.000  -1.6956   0.02215   0.01789  -0.0243  1.0000  0.0081  -13.5310   0.0000   0.2124
 -16.500  -1.6721   0.02062   0.01628  -0.0211  1.0000  0.0083  -13.0059   0.0000   0.2151
 -16.000  -1.6456   0.01939   0.01498  -0.0176  1.0000  0.0084  -12.4655   0.0000   0.2180
 -15.500  -1.6177   0.01824   0.01375  -0.0139  1.0000  0.0087  -11.9279   0.0000   0.2211
 -15.000  -1.5821   0.01711   0.01257  -0.0115  1.0000  0.0093  -11.3494   0.0000   0.2234
 -14.500  -1.5418   0.01617   0.01160  -0.0096  1.0000  0.0097  -10.7484   0.0000   0.2253
 -14.000  -1.4985   0.01536   0.01075  -0.0081  1.0000  0.0100  -10.1421   0.0000   0.2270
 -13.500  -1.4537   0.01461   0.00996  -0.0068  1.0000  0.0104  -9.5412   0.0000   0.2287
 -13.000  -1.4089   0.01377   0.00911  -0.0054  1.0000  0.0113  -8.9594   0.0000   0.2303
 -12.500  -1.3618   0.01310   0.00842  -0.0043  1.0000  0.0118  -8.3764   0.0000   0.2318
 -12.000  -1.3138   0.01249   0.00779  -0.0033  1.0000  0.0123  -7.8236   0.0000   0.2333
 -11.500  -1.2667   0.01183   0.00712  -0.0020  1.0000  0.0134  -7.2976   0.0000   0.2350
 -11.000  -1.2194   0.01131   0.00659  -0.0006  1.0000  0.0141  -6.7833   0.0000   0.2368
 -10.500  -1.1746   0.01076   0.00605   0.0014  1.0000  0.0154  -6.2982   0.0000   0.2392
 -10.000  -1.1294   0.01032   0.00559   0.0033  0.9999  0.0164  -5.8240   0.0000   0.2416
  -9.500  -1.0683   0.00977   0.00507   0.0018  0.9987  0.0182  -5.3095   0.0000   0.2410
  -9.000  -1.0062   0.00928   0.00460   0.0001  0.9971  0.0203  -4.8203   0.0000   0.2401
  -8.500  -0.9429   0.00882   0.00416  -0.0018  0.9959  0.0228  -4.3453   0.0000   0.2386
  -8.000  -0.8822   0.00839   0.00377  -0.0030  0.9920  0.0258  -3.9101   0.0000   0.2376
  -7.500  -0.8250   0.00800   0.00341  -0.0035  0.9844  0.0296  -3.5140   0.0000   0.2374
  -7.000  -0.7721   0.00765   0.00308  -0.0028  0.9714  0.0342  -3.1512   0.0000   0.2385
  -6.500  -0.7195   0.00733   0.00278  -0.0020  0.9547  0.0402  -2.8184   0.0000   0.2397
  -6.000  -0.6661   0.00703   0.00248  -0.0014  0.9339  0.0482  -2.5010   0.0000   0.2409
  -5.500  -0.6120   0.00676   0.00220  -0.0010  0.9086  0.0587  -2.2066   0.0000   0.2418
  -5.000  -0.5574   0.00651   0.00195  -0.0006  0.8781  0.0730  -1.9340   0.0000   0.2426
  -4.500  -0.5024   0.00628   0.00171  -0.0004  0.8429  0.0921  -1.6831   0.0000   0.2433
  -4.000  -0.4473   0.00605   0.00149  -0.0002  0.8035  0.1173  -1.4550   0.0000   0.2439
  -3.500  -0.3920   0.00584   0.00130  -0.0000  0.7610  0.1482  -1.2492   0.0000   0.2445
  -3.000  -0.3365   0.00566   0.00113   0.0001  0.7169  0.1842  -1.0677   0.0000   0.2450
  -2.500  -0.2808   0.00549   0.00099   0.0001  0.6721  0.2247  -0.9080   0.0000   0.2455
  -2.000  -0.2249   0.00535   0.00088   0.0001  0.6268  0.2675  -0.7709   0.0000   0.2458
  -1.500  -0.1688   0.00524   0.00079   0.0001  0.5820  0.3121  -0.6551   0.0000   0.2461
  -1.000  -0.1127   0.00517   0.00073   0.0001  0.5370  0.3572  -0.5589   0.0000   0.2464
  -0.500  -0.0563   0.00512   0.00070   0.0001  0.4923  0.4025  -0.4794   0.0000   0.2464
   0.000  -0.0000   0.00510   0.00069  -0.0000  0.4476  0.4476  -0.4128   0.0000   0.4679
   0.500   0.0563   0.00512   0.00070  -0.0001  0.4025  0.4923  -0.4794   0.0000   0.2464
   1.000   0.1127   0.00517   0.00073  -0.0001  0.3573  0.5370  -0.5589   0.0000   0.2464
   1.500   0.1688   0.00524   0.00079  -0.0001  0.3121  0.5820  -0.6551   0.0000   0.2461
   2.000   0.2249   0.00535   0.00088  -0.0001  0.2675  0.6268  -0.7709   0.0000   0.2459
   2.500   0.2808   0.00549   0.00099  -0.0001  0.2247  0.6721  -0.9081   0.0000   0.2455
   3.000   0.3365   0.00566   0.00113  -0.0000  0.1842  0.7169  -1.0677   0.0000   0.2450
   3.500   0.3920   0.00584   0.00130   0.0001  0.1482  0.7610  -1.2492   0.0000   0.2445
   4.000   0.4473   0.00605   0.00149   0.0003  0.1173  0.8035  -1.4550   0.0000   0.2440
   4.500   0.5025   0.00628   0.00171   0.0005  0.0921  0.8429  -1.6831   0.0000   0.2433
   5.000   0.5574   0.00651   0.00195   0.0008  0.0730  0.8781  -1.9341   0.0000   0.2426
   5.500   0.6121   0.00677   0.00220   0.0011  0.0587  0.9086  -2.2067   0.0000   0.2418
   6.000   0.6662   0.00703   0.00248   0.0016  0.0482  0.9339  -2.5011   0.0000   0.2409
   6.500   0.7196   0.00733   0.00278   0.0022  0.0402  0.9547  -2.8185   0.0000   0.2398
   7.000   0.7721   0.00765   0.00308   0.0030  0.0342  0.9713  -3.1514   0.0000   0.2385
   7.500   0.8250   0.00800   0.00341   0.0037  0.0296  0.9843  -3.5142   0.0000   0.2374
   8.000   0.8823   0.00839   0.00377   0.0033  0.0258  0.9920  -3.9103   0.0000   0.2376
   8.500   0.9430   0.00882   0.00416   0.0021  0.0228  0.9959  -4.3455   0.0000   0.2387
   9.000   1.0062   0.00928   0.00460   0.0003  0.0203  0.9971  -4.8205   0.0000   0.2401
   9.500   1.0683   0.00977   0.00507  -0.0014  0.0182  0.9987  -5.3098   0.0000   0.2410
  10.000   1.1295   0.01032   0.00559  -0.0029  0.0164  0.9999  -5.8244   0.0000   0.2416
  10.500   1.1745   0.01076   0.00604  -0.0008  0.0154  1.0000  -6.2979   0.0000   0.2391
  11.000   1.2194   0.01131   0.00659   0.0012  0.0141  1.0000  -6.7832   0.0000   0.2368
  11.500   1.2667   0.01183   0.00712   0.0026  0.0134  1.0000  -7.2978   0.0000   0.2350
  12.000   1.3139   0.01249   0.00779   0.0039  0.0123  1.0000  -7.8240   0.0000   0.2333
  12.500   1.3620   0.01310   0.00842   0.0050  0.0118  1.0000  -8.3771   0.0000   0.2319
  13.000   1.4091   0.01377   0.00911   0.0062  0.0113  1.0000  -8.9603   0.0000   0.2304
  13.500   1.4539   0.01461   0.00996   0.0076  0.0104  1.0000  -9.5423   0.0000   0.2287
  14.000   1.4988   0.01536   0.01075   0.0090  0.0100  1.0000  -10.1435   0.0000   0.2271
  14.500   1.5420   0.01617   0.01160   0.0105  0.0097  1.0000  -10.7501   0.0000   0.2253
  15.000   1.5824   0.01711   0.01257   0.0125  0.0093  1.0000  -11.3514   0.0000   0.2234
  15.500   1.6181   0.01824   0.01375   0.0149  0.0087  1.0000  -11.9305   0.0000   0.2211
  16.000   1.6463   0.01939   0.01498   0.0186  0.0084  1.0000  -12.4696   0.0000   0.2181
  16.500   1.6728   0.02062   0.01628   0.0221  0.0083  1.0000  -13.0107   0.0000   0.2152
  17.000   1.6964   0.02215   0.01788   0.0254  0.0081  1.0000  -13.5367   0.0000   0.2125
  17.500   1.7166   0.02408   0.01990   0.0283  0.0079  1.0000  -14.0603   0.0000   0.2099
  18.000   1.7324   0.02659   0.02250   0.0306  0.0077  1.0000  -14.5523   0.0000   0.2076
  18.500   1.7428   0.02990   0.02591   0.0322  0.0074  1.0000  -14.9970   0.0000   0.2056
  19.000   1.7451   0.03444   0.03060   0.0328  0.0071  1.0000  -15.3631   0.0000   0.2041
  19.500   1.7379   0.04064   0.03696   0.0318  0.0069  1.0000  -15.6279   0.0000   0.2033
  20.000   1.7293   0.04758   0.04406   0.0296  0.0068  1.0000  -15.8743   0.0000   0.2031
  20.500   1.7077   0.05670   0.05337   0.0259  0.0068  1.0000  -15.9747   0.0000   0.2037
  21.000   1.6685   0.06885   0.06574   0.0203  0.0068  1.0000  -15.8680   0.0000   0.2052
  21.500   1.6047   0.08533   0.08250   0.0120  0.0068  1.0000  -15.4530   0.0000   0.2084
  22.000   1.5107   0.10758   0.10508  -0.0001  0.0068  1.0000  -14.6145   0.0000   0.2145
  22.500   1.3936   0.13551   0.13338  -0.0175  0.0069  1.0000  -13.3217   0.0000   0.2257
  23.500   1.2115   0.18848   0.18697  -0.0570  0.0069  1.0000  -10.6502   0.0000   0.2584
  24.000   1.1830   0.20357   0.20220  -0.0692  0.0068  1.0000  -10.0796   0.0000   0.2689
  24.500   1.1683   0.21585   0.21458  -0.0794  0.0067  1.0000  -9.6957   0.0000   0.2774
  25.000   1.1612   0.22643   0.22524  -0.0884  0.0065  1.0000  -9.4193   0.0000   0.2846
  25.500   1.1566   0.23658   0.23546  -0.0971  0.0063  1.0000  -9.1449   0.0000   0.2914
  26.000   1.1558   0.24589   0.24481  -0.1053  0.0060  1.0000  -8.9215   0.0000   0.2975
  26.500   1.1571   0.25459   0.25355  -0.1131  0.0057  1.0000  -8.7156   0.0000   0.3031
  27.000   1.1604   0.26280   0.26181  -0.1205  0.0054  1.0000  -8.5415   0.0000   0.3081
  27.500   1.1495   0.27687   0.27599  -0.1316  0.0050  1.0000  -7.7358   0.0000   0.3185


