xflr5 v6.33

 Calculated polar for: NACA 0012-64

 1 1 Reynolds number fixed          Mach number fixed         

 xtrf =   1.000 (top)        1.000 (bottom)
 Mach =   0.000     Re =     1.600 e 6     Ncrit =   9.000

  alpha     CL        CD       CDp       Cm    Top Xtr Bot Xtr   Cpmin    Chinge    XCp    
 ------- -------- --------- --------- -------- ------- ------- -------- --------- ---------
 -23.500  -0.8866   0.27571   0.27428   0.0784  1.0000  0.0058  -2.2988   0.0000   0.3072
 -23.000  -0.5613   0.23104   0.22979   0.0279  1.0000  0.0069  -1.5327   0.0000   0.2798
 -22.500  -0.5541   0.22628   0.22502   0.0253  1.0000  0.0075  -1.5022   0.0000   0.2764
 -22.000  -0.8444   0.25186   0.25043   0.0631  1.0000  0.0064  -2.8474   0.0000   0.2959
 -21.500  -0.8314   0.24414   0.24270   0.0582  1.0000  0.0062  -2.9946   0.0000   0.2920
 -21.000  -0.5457   0.20723   0.20594   0.0172  1.0000  0.0084  -1.9201   0.0000   0.2628
 -20.500  -0.5365   0.20351   0.20222   0.0149  1.0000  0.0089  -1.7947   0.0000   0.2597
 -20.000  -0.6198   0.17760   0.17629   0.0072  1.0000  0.0114  -4.0684   0.0000   0.2392
 -19.000  -1.4915   0.05148   0.04792  -0.0458  1.0000  0.0097  -14.4586   0.0000   0.1916
 -18.500  -1.5019   0.04459   0.04080  -0.0473  1.0000  0.0099  -14.2295   0.0000   0.1922
 -18.000  -1.5118   0.03852   0.03452  -0.0472  1.0000  0.0104  -13.9843   0.0000   0.1938
 -17.500  -1.5119   0.03399   0.02982  -0.0458  1.0000  0.0109  -13.6305   0.0000   0.1959
 -17.000  -1.5024   0.03065   0.02634  -0.0438  1.0000  0.0115  -13.1832   0.0000   0.1982
 -16.500  -1.4865   0.02805   0.02358  -0.0415  1.0000  0.0121  -12.6826   0.0000   0.2005
 -16.000  -1.4708   0.02558   0.02099  -0.0385  1.0000  0.0130  -12.1920   0.0000   0.2032
 -15.500  -1.4475   0.02378   0.01911  -0.0358  1.0000  0.0139  -11.6591   0.0000   0.2057
 -15.000  -1.4195   0.02238   0.01758  -0.0331  1.0000  0.0147  -11.0997   0.0000   0.2081
 -14.500  -1.3930   0.02090   0.01604  -0.0299  1.0000  0.0159  -10.5628   0.0000   0.2108
 -14.000  -1.3601   0.01991   0.01498  -0.0272  1.0000  0.0170  -9.9841   0.0000   0.2131
 -13.500  -1.3276   0.01895   0.01394  -0.0242  1.0000  0.0179  -9.4249   0.0000   0.2158
 -13.000  -1.2958   0.01812   0.01309  -0.0208  1.0000  0.0191  -8.8765   0.0000   0.2188
 -12.500  -1.2644   0.01765   0.01257  -0.0167  1.0000  0.0202  -8.3388   0.0000   0.2224
 -12.000  -1.2325   0.01722   0.01208  -0.0126  1.0000  0.0208  -7.8147   0.0000   0.2262
 -11.500  -1.2139   0.01633   0.01112  -0.0060  1.0000  0.0219  -7.3918   0.0000   0.2322
 -11.000  -1.1859   0.01585   0.01062  -0.0010  0.9999  0.0228  -6.9146   0.0000   0.2370
 -10.500  -1.1267   0.01521   0.00993  -0.0026  0.9982  0.0239  -6.2881   0.0000   0.2362
 -10.000  -1.0663   0.01466   0.00932  -0.0044  0.9965  0.0247  -5.6876   0.0000   0.2350
  -9.500  -1.0092   0.01356   0.00818  -0.0058  0.9948  0.0263  -5.1787   0.0000   0.2340
  -9.000  -0.9510   0.01290   0.00750  -0.0071  0.9918  0.0275  -4.6980   0.0000   0.2330
  -8.500  -0.8891   0.01234   0.00690  -0.0091  0.9897  0.0287  -4.2208   0.0000   0.2308
  -8.000  -0.8269   0.01152   0.00603  -0.0112  0.9881  0.0300  -3.7867   0.0000   0.2279
  -7.500  -0.7676   0.01085   0.00536  -0.0126  0.9847  0.0318  -3.4012   0.0000   0.2256
  -7.000  -0.7089   0.01031   0.00480  -0.0136  0.9804  0.0331  -3.0674   0.0000   0.2232
  -6.500  -0.6546   0.00987   0.00432  -0.0136  0.9737  0.0341  -2.7821   0.0000   0.2221
  -6.000  -0.6041   0.00931   0.00376  -0.0126  0.9657  0.0369  -2.5371   0.0000   0.2223
  -5.500  -0.5531   0.00894   0.00336  -0.0117  0.9572  0.0395  -2.2895   0.0000   0.2224
  -5.000  -0.5030   0.00850   0.00296  -0.0106  0.9471  0.0471  -2.0552   0.0000   0.2229
  -4.500  -0.4529   0.00802   0.00260  -0.0095  0.9364  0.0731  -1.8260   0.0000   0.2232
  -4.000  -0.4015   0.00761   0.00230  -0.0087  0.9251  0.0990  -1.6053   0.0000   0.2227
  -3.500  -0.3505   0.00714   0.00201  -0.0079  0.9130  0.1458  -1.4009   0.0000   0.2222
  -3.000  -0.2993   0.00667   0.00175  -0.0071  0.9005  0.2080  -1.2033   0.0000   0.2212
  -2.500  -0.2499   0.00605   0.00148  -0.0060  0.8871  0.3093  -1.0269   0.0000   0.2210
  -2.000  -0.2049   0.00514   0.00119  -0.0041  0.8726  0.4890  -0.8664   0.0000   0.2250
  -1.500  -0.1564   0.00457   0.00103  -0.0027  0.8572  0.6133  -0.7059   0.0000   0.2280
  -1.000  -0.1049   0.00433   0.00094  -0.0017  0.8350  0.6815  -0.5473   0.0000   0.2290
  -0.500  -0.0530   0.00419   0.00089  -0.0008  0.8063  0.7360  -0.4259   0.0000   0.2314
   0.000   0.0000   0.00416   0.00087   0.0000  0.7735  0.7735  -0.3381   0.0000   0.1708
   0.500   0.0530   0.00419   0.00089   0.0008  0.7360  0.8063  -0.4259   0.0000   0.2314
   1.000   0.1049   0.00433   0.00094   0.0017  0.6815  0.8350  -0.5473   0.0000   0.2290
   1.500   0.1564   0.00457   0.00103   0.0027  0.6133  0.8572  -0.7059   0.0000   0.2280
   2.000   0.2049   0.00514   0.00119   0.0041  0.4890  0.8726  -0.8664   0.0000   0.2251
   2.500   0.2499   0.00605   0.00148   0.0060  0.3093  0.8871  -1.0270   0.0000   0.2210
   3.000   0.2993   0.00667   0.00175   0.0071  0.2080  0.9005  -1.2033   0.0000   0.2212
   3.500   0.3505   0.00714   0.00201   0.0079  0.1458  0.9130  -1.4009   0.0000   0.2222
   4.000   0.4015   0.00761   0.00230   0.0087  0.0990  0.9251  -1.6053   0.0000   0.2227
   4.500   0.4530   0.00802   0.00260   0.0095  0.0731  0.9364  -1.8261   0.0000   0.2232
   5.000   0.5030   0.00850   0.00296   0.0106  0.0471  0.9471  -2.0554   0.0000   0.2229
   5.500   0.5531   0.00894   0.00336   0.0117  0.0395  0.9572  -2.2897   0.0000   0.2224
   6.000   0.6042   0.00931   0.00376   0.0126  0.0369  0.9657  -2.5373   0.0000   0.2223
   6.500   0.6547   0.00987   0.00432   0.0135  0.0341  0.9737  -2.7823   0.0000   0.2221
   7.000   0.7090   0.01031   0.00480   0.0136  0.0331  0.9804  -3.0677   0.0000   0.2232
   7.500   0.7677   0.01085   0.00536   0.0125  0.0318  0.9847  -3.4014   0.0000   0.2256
   8.000   0.8270   0.01152   0.00603   0.0112  0.0300  0.9881  -3.7870   0.0000   0.2279
   8.500   0.8892   0.01234   0.00690   0.0090  0.0287  0.9897  -4.2213   0.0000   0.2308
   9.000   0.9511   0.01290   0.00750   0.0071  0.0275  0.9918  -4.6985   0.0000   0.2330
   9.500   1.0093   0.01356   0.00818   0.0058  0.0263  0.9948  -5.1792   0.0000   0.2341
  10.000   1.0665   0.01465   0.00932   0.0044  0.0247  0.9965  -5.6885   0.0000   0.2351
  10.500   1.1269   0.01520   0.00993   0.0026  0.0239  0.9982  -6.2891   0.0000   0.2362
  11.000   1.1861   0.01585   0.01062   0.0009  0.0228  0.9999  -6.9158   0.0000   0.2370
  11.500   1.2138   0.01632   0.01112   0.0060  0.0219  1.0000  -7.3912   0.0000   0.2322
  12.000   1.2326   0.01722   0.01208   0.0126  0.0208  1.0000  -7.8149   0.0000   0.2262
  12.500   1.2646   0.01764   0.01257   0.0167  0.0202  1.0000  -8.3404   0.0000   0.2225
  13.000   1.2963   0.01812   0.01308   0.0206  0.0191  1.0000  -8.8798   0.0000   0.2189
  13.500   1.3282   0.01896   0.01394   0.0241  0.0179  1.0000  -9.4284   0.0000   0.2159
  14.000   1.3608   0.01990   0.01498   0.0271  0.0170  1.0000  -9.9890   0.0000   0.2133
  14.500   1.3939   0.02089   0.01604   0.0298  0.0159  1.0000  -10.5685   0.0000   0.2109
  15.000   1.4205   0.02237   0.01757   0.0329  0.0147  1.0000  -11.1064   0.0000   0.2082
  15.500   1.4486   0.02377   0.01910   0.0356  0.0139  1.0000  -11.6667   0.0000   0.2059
  16.000   1.4720   0.02557   0.02098   0.0383  0.0129  1.0000  -12.2004   0.0000   0.2034
  16.500   1.4879   0.02803   0.02356   0.0413  0.0121  1.0000  -12.6932   0.0000   0.2007
  17.000   1.5039   0.03063   0.02631   0.0436  0.0115  1.0000  -13.1950   0.0000   0.1983
  17.500   1.5135   0.03396   0.02979   0.0456  0.0109  1.0000  -13.6436   0.0000   0.1961
  18.000   1.5134   0.03850   0.03450   0.0469  0.0104  1.0000  -13.9975   0.0000   0.1940
  18.500   1.5041   0.04452   0.04072   0.0470  0.0099  1.0000  -14.2487   0.0000   0.1925
  19.000   1.4940   0.05139   0.04782   0.0455  0.0097  1.0000  -14.4798   0.0000   0.1919
  19.500   1.4703   0.06101   0.05770   0.0418  0.0095  1.0000  -14.5413   0.0000   0.1925
  20.000   1.4218   0.07575   0.07276   0.0342  0.0095  1.0000  -14.2728   0.0000   0.1954
  20.500   1.2771   0.10929   0.10683   0.0156  0.0099  1.0000  -12.6702   0.0000   0.2057
  21.000   1.1113   0.14938   0.14740  -0.0074  0.0106  1.0000  -10.4263   0.0000   0.2236
  21.500   1.0348   0.17522   0.17346  -0.0236  0.0104  1.0000  -9.1459   0.0000   0.2391
  22.000   0.9973   0.19382   0.19219  -0.0358  0.0099  1.0000  -8.3401   0.0000   0.2514
  23.500   0.8885   0.27689   0.27546  -0.0789  0.0058  1.0000  -2.3019   0.0000   0.3076
  24.000   0.9045   0.28249   0.28107  -0.0835  0.0055  1.0000  -2.3765   0.0000   0.3100
  24.500   0.9204   0.28744   0.28603  -0.0881  0.0053  1.0000  -2.5034   0.0000   0.3121
  25.000   0.9361   0.29184   0.29043  -0.0925  0.0052  1.0000  -2.6767   0.0000   0.3139
  25.500   0.9507   0.30163   0.30022  -0.0984  0.0045  1.0000  -2.2743   0.0000   0.3180
  26.000   0.9660   0.30699   0.30559  -0.1032  0.0042  1.0000  -2.3230   0.0000   0.3201
  26.500   0.9811   0.31181   0.31042  -0.1081  0.0041  1.0000  -2.4197   0.0000   0.3221
  27.000   0.9956   0.31616   0.31478  -0.1128  0.0040  1.0000  -2.5567   0.0000   0.3238
  27.500   1.0096   0.32154   0.32016  -0.1177  0.0039  1.0000  -2.5769   0.0000   0.3257
  28.000   1.0253   0.33017   0.32880  -0.1236  0.0033  1.0000  -2.2616   0.0000   0.3288
  28.500   1.0395   0.33510   0.33373  -0.1286  0.0031  1.0000  -2.3251   0.0000   0.3307
  29.000   1.0532   0.33960   0.33824  -0.1337  0.0030  1.0000  -2.4247   0.0000   0.3324
  29.500   1.0663   0.34367   0.34233  -0.1388  0.0030  1.0000  -2.5586   0.0000   0.3339
  30.000   1.0793   0.34904   0.34770  -0.1440  0.0029  1.0000  -2.5270   0.0000   0.3357
  30.500   1.0945   0.35687   0.35553  -0.1498  0.0026  1.0000  -2.2474   0.0000   0.3381
  31.000   1.1074   0.36160   0.36028  -0.1551  0.0023  1.0000  -2.2937   0.0000   0.3397
  31.500   1.1197   0.36593   0.36462  -0.1604  0.0022  1.0000  -2.3750   0.0000   0.3413
  32.000   1.1314   0.36990   0.36860  -0.1658  0.0021  1.0000  -2.4829   0.0000   0.3427
  32.500   1.1422   0.37342   0.37213  -0.1710  0.0021  1.0000  -2.6252   0.0000   0.3440
  33.000   1.1552   0.37992   0.37863  -0.1769  0.0021  1.0000  -2.4089   0.0000   0.3460
  33.500   1.1681   0.38603   0.38476  -0.1824  0.0018  1.0000  -2.2882   0.0000   0.3476
  34.000   1.1790   0.39032   0.38905  -0.1880  0.0016  1.0000  -2.3291   0.0000   0.3490
  34.500   1.1893   0.39427   0.39302  -0.1935  0.0015  1.0000  -2.3990   0.0000   0.3503
  35.000   1.1989   0.39789   0.39665  -0.1991  0.0015  1.0000  -2.4921   0.0000   0.3516
  35.500   1.2076   0.40109   0.39987  -0.2047  0.0014  1.0000  -2.6127   0.0000   0.3528
  36.000   1.2176   0.40596   0.40474  -0.2104  0.0014  1.0000  -2.5232   0.0000   0.3542
  36.500   1.2292   0.41195   0.41074  -0.2162  0.0013  1.0000  -2.3052   0.0000   0.3556
  37.000   1.2382   0.41618   0.41498  -0.2219  0.0011  1.0000  -2.3063   0.0000   0.3568
  37.500   1.2464   0.41983   0.41865  -0.2276  0.0010  1.0000  -2.3508   0.0000   0.3580
  38.000   1.2540   0.42322   0.42205  -0.2334  0.0009  1.0000  -2.4151   0.0000   0.3592
  38.500   1.2607   0.42630   0.42514  -0.2392  0.0009  1.0000  -2.5004   0.0000   0.3603
  39.000   1.2666   0.42896   0.42781  -0.2449  0.0009  1.0000  -2.6096   0.0000   0.3613
  39.500   1.2742   0.43328   0.43215  -0.2508  0.0008  1.0000  -2.5449   0.0000   0.3625
  40.000   1.2830   0.43846   0.43733  -0.2566  0.0008  1.0000  -2.3974   0.0000   0.3636
  40.500   1.2893   0.44247   0.44136  -0.2624  0.0006  1.0000  -2.3895   0.0000   0.3646


