xflr5 v6.33

 Calculated polar for: NACA 0012-64

 1 1 Reynolds number fixed          Mach number fixed         

 xtrf =   1.000 (top)        1.000 (bottom)
 Mach =   0.000     Re =     0.200 e 6     Ncrit =   9.000

  alpha     CL        CD       CDp       Cm    Top Xtr Bot Xtr   Cpmin    Chinge    XCp    
 ------- -------- --------- --------- -------- ------- ------- -------- --------- ---------
 -25.000  -0.5762   0.25685   0.25343   0.0365  1.0000  0.0241  -1.1118   0.0000   0.2922
 -24.500  -0.5749   0.25157   0.24814   0.0327  1.0000  0.0248  -1.2497   0.0000   0.2860
 -24.000  -0.5637   0.24599   0.24252   0.0313  1.0000  0.0257  -1.1457   0.0000   0.2855
 -23.500  -0.5564   0.24097   0.23747   0.0288  1.0000  0.0271  -1.1428   0.0000   0.2825
 -23.000  -0.5515   0.23557   0.23205   0.0258  1.0000  0.0288  -1.2152   0.0000   0.2778
 -22.000  -0.8322   0.25937   0.25531   0.0623  1.0000  0.0286  -1.9510   0.0000   0.2971
 -20.000  -0.5121   0.20493   0.20127   0.0114  1.0000  0.0383  -1.2775   0.0000   0.2560
 -19.500  -0.5219   0.20046   0.19681   0.0065  1.0000  0.0399  -1.5018   0.0000   0.2463
 -19.000  -0.5017   0.19481   0.19112   0.0066  1.0000  0.0417  -1.3233   0.0000   0.2476
 -18.500  -0.4990   0.19013   0.18642   0.0038  1.0000  0.0455  -1.3800   0.0000   0.2423
 -16.500  -0.6696   0.18765   0.18356   0.0171  1.0000  0.0508  -1.9204   0.0000   0.2568
 -16.000  -0.6749   0.17844   0.17440   0.0091  1.0000  0.0540  -2.1661   0.0000   0.2454
 -15.500  -0.6485   0.17291   0.16883   0.0095  1.0000  0.0567  -1.9583   0.0000   0.2473
 -15.000  -0.6722   0.16199   0.15799  -0.0031  1.0000  0.0617  -2.3749   0.0000   0.2288
 -14.500  -0.6354   0.15719   0.15314   0.0015  1.0000  0.0641  -2.0158   0.0000   0.2364
 -14.000  -0.6476   0.14714   0.14314  -0.0071  1.0000  0.0705  -2.2268   0.0000   0.2238
 -12.500  -0.5190   0.12430   0.12044  -0.0205  1.0000  0.0861  -1.7698   0.0000   0.1987
 -10.500  -0.9732   0.04541   0.03951  -0.0261  1.0000  0.0520  -4.5533   0.0000   0.2125
 -10.000  -0.9835   0.04017   0.03348  -0.0169  1.0000  0.0530  -4.5214   0.0000   0.2226
  -9.500  -0.9726   0.03543   0.02827  -0.0107  1.0000  0.0548  -4.3572   0.0000   0.2293
  -9.000  -0.9453   0.03263   0.02528  -0.0065  1.0000  0.0570  -4.0775   0.0000   0.2339
  -8.500  -0.9198   0.02986   0.02208  -0.0014  1.0000  0.0595  -3.8506   0.0000   0.2397
  -8.000  -0.8909   0.02755   0.01923   0.0034  1.0000  0.0615  -3.6195   0.0000   0.2456
  -7.500  -0.8518   0.02474   0.01636   0.0058  1.0000  0.0645  -3.3337   0.0000   0.2491
  -7.000  -0.8137   0.02297   0.01442   0.0089  1.0000  0.0675  -3.0871   0.0000   0.2536
  -6.500  -0.7759   0.02155   0.01278   0.0122  1.0000  0.0712  -2.8476   0.0000   0.2588
  -6.000  -0.7384   0.01988   0.01121   0.0151  1.0000  0.0760  -2.6354   0.0000   0.2640
  -5.500  -0.7025   0.01863   0.00992   0.0186  1.0000  0.0824  -2.4441   0.0000   0.2704
  -5.000  -0.6681   0.01748   0.00883   0.0221  1.0000  0.0932  -2.2781   0.0000   0.2774
  -4.500  -0.6341   0.01629   0.00780   0.0256  1.0000  0.1167  -2.1230   0.0000   0.2851
  -4.000  -0.5992   0.01506   0.00703   0.0286  1.0000  0.1852  -1.9566   0.0000   0.2929
  -3.500  -0.5601   0.01314   0.00637   0.0301  0.9982  0.4157  -1.7700   0.0000   0.2993
  -3.000  -0.5015   0.01204   0.00662   0.0294  0.9910  0.7057  -1.5517   0.0000   0.3045
  -2.500  -0.4363   0.01241   0.00729   0.0286  0.9826  0.8156  -1.3249   0.0000   0.3116
  -2.000  -0.3684   0.01299   0.00785   0.0269  0.9732  0.8635  -1.1095   0.0000   0.3195
  -1.500  -0.2999   0.01361   0.00841   0.0251  0.9635  0.8971  -0.9088   0.0000   0.3306
  -1.000  -0.2117   0.01466   0.00939   0.0200  0.9584  0.9240  -0.6862   0.0000   0.3414
  -0.500  -0.1017   0.01564   0.01032   0.0099  0.9549  0.9407  -0.4590   0.0000   0.3438
   0.000   0.0000   0.01576   0.01041  -0.0000  0.9489  0.9489  -0.3308   0.0000   0.2896
   0.500   0.1017   0.01564   0.01032  -0.0099  0.9407  0.9549  -0.4590   0.0000   0.3438
   1.000   0.2117   0.01466   0.00939  -0.0200  0.9240  0.9584  -0.6862   0.0000   0.3414
   1.500   0.2998   0.01361   0.00841  -0.0251  0.8971  0.9635  -0.9088   0.0000   0.3306
   2.000   0.3684   0.01298   0.00785  -0.0269  0.8635  0.9732  -1.1095   0.0000   0.3195
   2.500   0.4363   0.01241   0.00729  -0.0285  0.8156  0.9826  -1.3248   0.0000   0.3116
   3.000   0.5015   0.01204   0.00662  -0.0294  0.7057  0.9911  -1.5517   0.0000   0.3045
   3.500   0.5601   0.01313   0.00636  -0.0301  0.4158  0.9982  -1.7700   0.0000   0.2993
   4.000   0.5990   0.01505   0.00702  -0.0286  0.1854  1.0000  -1.9563   0.0000   0.2929
   4.500   0.6339   0.01628   0.00780  -0.0256  0.1167  1.0000  -2.1228   0.0000   0.2851
   5.000   0.6680   0.01748   0.00883  -0.0221  0.0932  1.0000  -2.2779   0.0000   0.2774
   5.500   0.7024   0.01863   0.00992  -0.0186  0.0825  1.0000  -2.4438   0.0000   0.2703
   6.000   0.7383   0.01987   0.01120  -0.0151  0.0760  1.0000  -2.6352   0.0000   0.2640
   6.500   0.7758   0.02154   0.01277  -0.0122  0.0712  1.0000  -2.8473   0.0000   0.2588
   7.000   0.8136   0.02297   0.01442  -0.0089  0.0675  1.0000  -3.0868   0.0000   0.2536
   7.500   0.8517   0.02474   0.01635  -0.0058  0.0645  1.0000  -3.3334   0.0000   0.2490
   8.000   0.8909   0.02755   0.01923  -0.0034  0.0615  1.0000  -3.6192   0.0000   0.2456
   8.500   0.9197   0.02986   0.02207   0.0015  0.0595  1.0000  -3.8504   0.0000   0.2397
   9.000   0.9452   0.03263   0.02528   0.0065  0.0570  1.0000  -4.0773   0.0000   0.2339
   9.500   0.9725   0.03543   0.02827   0.0107  0.0548  1.0000  -4.3570   0.0000   0.2292
  10.000   0.9835   0.04016   0.03347   0.0169  0.0530  1.0000  -4.5214   0.0000   0.2226
  10.500   0.9733   0.04541   0.03951   0.0261  0.0520  1.0000  -4.5534   0.0000   0.2125
  11.000   0.9478   0.05194   0.04671   0.0352  0.0515  1.0000  -4.5014   0.0000   0.2015
  11.500   0.9053   0.05889   0.05414   0.0441  0.0520  1.0000  -4.3873   0.0000   0.1893
  12.000   0.8641   0.06685   0.06239   0.0482  0.0527  1.0000  -4.2795   0.0000   0.1813
  17.500   0.4869   0.18030   0.17655   0.0000  0.0497  1.0000  -1.3707   0.0000   0.2353
  18.000   0.5001   0.18461   0.18089  -0.0007  0.0468  1.0000  -1.4760   0.0000   0.2363
  20.500   0.7858   0.24174   0.23765  -0.0500  0.0326  1.0000  -1.9035   0.0000   0.2886
  21.000   0.8019   0.24789   0.24381  -0.0544  0.0306  1.0000  -1.9090   0.0000   0.2918
  21.500   0.8206   0.25354   0.24949  -0.0569  0.0293  1.0000  -2.0511   0.0000   0.2924
  22.000   0.8339   0.26039   0.25632  -0.0628  0.0286  1.0000  -1.9481   0.0000   0.2975
  22.500   0.8497   0.26665   0.26259  -0.0679  0.0267  1.0000  -1.9067   0.0000   0.3012
  23.000   0.8662   0.27224   0.26820  -0.0721  0.0255  1.0000  -1.9526   0.0000   0.3034
  29.500   0.6277   0.30561   0.30246  -0.0606  0.0167  1.0000  -0.9848   0.0000   0.3186
  30.000   0.6329   0.31107   0.30796  -0.0633  0.0158  1.0000  -0.9795   0.0000   0.3212
  30.500   0.6379   0.31629   0.31321  -0.0660  0.0151  1.0000  -0.9979   0.0000   0.3236


