xflr5 v6.33

 Calculated polar for: NACA 0012-64

 1 1 Reynolds number fixed          Mach number fixed         

 xtrf =   1.000 (top)        1.000 (bottom)
 Mach =   0.000     Re =     3.000 e 6     Ncrit =   9.000

  alpha     CL        CD       CDp       Cm    Top Xtr Bot Xtr   Cpmin    Chinge    XCp    
 ------- -------- --------- --------- -------- ------- ------- -------- --------- ---------
 -25.000  -0.9955   0.25324   0.25211   0.0787  1.0000  0.0053  -7.2392   0.0000   0.2890
 -24.500  -0.9849   0.24665   0.24553   0.0732  1.0000  0.0057  -7.1775   0.0000   0.2855
 -24.000  -0.9838   0.23656   0.23540   0.0659  1.0000  0.0062  -7.4395   0.0000   0.2790
 -23.500  -0.9899   0.22439   0.22314   0.0574  1.0000  0.0065  -7.8536   0.0000   0.2707
 -23.000  -0.9932   0.21365   0.21238   0.0496  1.0000  0.0072  -8.1016   0.0000   0.2636
 -22.500  -1.0211   0.19632   0.19496   0.0379  1.0000  0.0077  -8.8821   0.0000   0.2513
 -22.000  -1.1203   0.16354   0.16190   0.0163  1.0000  0.0078  -10.8359   0.0000   0.2290
 -21.500  -1.4344   0.09561   0.09307  -0.0238  1.0000  0.0066  -15.3972   0.0000   0.1988
 -21.000  -1.5312   0.07221   0.06926  -0.0366  1.0000  0.0065  -16.3430   0.0000   0.1931
 -20.500  -1.5711   0.05956   0.05635  -0.0426  1.0000  0.0065  -16.4772   0.0000   0.1915
 -20.000  -1.5996   0.04972   0.04628  -0.0461  1.0000  0.0067  -16.4383   0.0000   0.1913
 -19.500  -1.6154   0.04249   0.03886  -0.0472  1.0000  0.0070  -16.2279   0.0000   0.1923
 -19.000  -1.6210   0.03711   0.03331  -0.0467  1.0000  0.0073  -15.8897   0.0000   0.1940
 -18.500  -1.6182   0.03298   0.02903  -0.0453  1.0000  0.0076  -15.4623   0.0000   0.1961
 -18.000  -1.6085   0.02974   0.02566  -0.0433  1.0000  0.0079  -14.9790   0.0000   0.1983
 -17.500  -1.5927   0.02719   0.02299  -0.0410  1.0000  0.0081  -14.4418   0.0000   0.2006
 -17.000  -1.5796   0.02460   0.02027  -0.0378  1.0000  0.0088  -13.9412   0.0000   0.2035
 -16.500  -1.5602   0.02259   0.01817  -0.0347  1.0000  0.0094  -13.3844   0.0000   0.2062
 -16.000  -1.5354   0.02102   0.01651  -0.0316  1.0000  0.0099  -12.7910   0.0000   0.2089
 -15.500  -1.5101   0.01953   0.01493  -0.0283  1.0000  0.0107  -12.2276   0.0000   0.2117
 -15.000  -1.4819   0.01825   0.01360  -0.0250  1.0000  0.0117  -11.6491   0.0000   0.2145
 -14.500  -1.4513   0.01718   0.01247  -0.0217  1.0000  0.0128  -11.0631   0.0000   0.2173
 -14.000  -1.4202   0.01627   0.01153  -0.0181  1.0000  0.0141  -10.4830   0.0000   0.2204
 -13.500  -1.3902   0.01558   0.01078  -0.0139  1.0000  0.0149  -9.9207   0.0000   0.2240
 -13.000  -1.3619   0.01490   0.01008  -0.0092  1.0000  0.0163  -9.3812   0.0000   0.2281
 -12.500  -1.3366   0.01442   0.00957  -0.0036  1.0000  0.0172  -8.8709   0.0000   0.2329
 -12.000  -1.2813   0.01373   0.00885  -0.0045  0.9988  0.0182  -8.1955   0.0000   0.2329
 -11.500  -1.2243   0.01310   0.00823  -0.0057  0.9974  0.0196  -7.5302   0.0000   0.2325
 -11.000  -1.1650   0.01261   0.00774  -0.0072  0.9961  0.0206  -6.8745   0.0000   0.2317
 -10.500  -1.1054   0.01206   0.00717  -0.0088  0.9952  0.0213  -6.2460   0.0000   0.2306
 -10.000  -1.0491   0.01141   0.00652  -0.0097  0.9928  0.0227  -5.6718   0.0000   0.2300
  -9.500  -0.9898   0.01092   0.00603  -0.0111  0.9905  0.0236  -5.1470   0.0000   0.2286
  -9.000  -0.9306   0.01050   0.00560  -0.0123  0.9876  0.0244  -4.6583   0.0000   0.2271
  -8.500  -0.8788   0.01009   0.00517  -0.0119  0.9810  0.0250  -4.2197   0.0000   0.2275
  -8.000  -0.8300   0.00953   0.00458  -0.0107  0.9734  0.0266  -3.8317   0.0000   0.2286
  -7.500  -0.7798   0.00915   0.00419  -0.0098  0.9653  0.0278  -3.4678   0.0000   0.2295
  -7.000  -0.7289   0.00880   0.00382  -0.0089  0.9566  0.0286  -3.1500   0.0000   0.2302
  -6.500  -0.6768   0.00849   0.00348  -0.0083  0.9475  0.0291  -2.8697   0.0000   0.2306
  -6.000  -0.6250   0.00809   0.00305  -0.0076  0.9377  0.0313  -2.6128   0.0000   0.2311
  -5.500  -0.5719   0.00778   0.00274  -0.0072  0.9275  0.0331  -2.3527   0.0000   0.2311
  -5.000  -0.5182   0.00750   0.00245  -0.0069  0.9168  0.0359  -2.1015   0.0000   0.2307
  -4.500  -0.4650   0.00717   0.00216  -0.0064  0.9045  0.0452  -1.8603   0.0000   0.2304
  -4.000  -0.4122   0.00680   0.00189  -0.0060  0.8919  0.0704  -1.6308   0.0000   0.2300
  -3.500  -0.3582   0.00652   0.00168  -0.0057  0.8786  0.0909  -1.4185   0.0000   0.2289
  -3.000  -0.3051   0.00618   0.00147  -0.0053  0.8644  0.1306  -1.2158   0.0000   0.2276
  -2.500  -0.2520   0.00583   0.00128  -0.0049  0.8492  0.1840  -1.0315   0.0000   0.2258
  -2.000  -0.1994   0.00547   0.00111  -0.0044  0.8308  0.2508  -0.8581   0.0000   0.2234
  -1.500  -0.1523   0.00476   0.00088  -0.0029  0.8034  0.4131  -0.7007   0.0000   0.2265
  -1.000  -0.1028   0.00434   0.00074  -0.0017  0.7705  0.5298  -0.5457   0.0000   0.2287
  -0.500  -0.0515   0.00409   0.00067  -0.0009  0.7332  0.6146  -0.4249   0.0000   0.2289
   0.000  -0.0000   0.00396   0.00064   0.0000  0.6888  0.6888  -0.3385   0.0000   0.4121
   0.500   0.0515   0.00409   0.00067   0.0009  0.6146  0.7332  -0.4249   0.0000   0.2289
   1.500   0.1523   0.00476   0.00088   0.0029  0.4131  0.8034  -0.7007   0.0000   0.2265
   2.000   0.1994   0.00547   0.00111   0.0044  0.2508  0.8308  -0.8581   0.0000   0.2234
   2.500   0.2521   0.00583   0.00128   0.0049  0.1840  0.8492  -1.0316   0.0000   0.2258
   3.000   0.3051   0.00618   0.00147   0.0053  0.1306  0.8644  -1.2158   0.0000   0.2276
   3.500   0.3583   0.00652   0.00168   0.0057  0.0909  0.8786  -1.4186   0.0000   0.2289
   4.000   0.4122   0.00680   0.00189   0.0060  0.0704  0.8919  -1.6309   0.0000   0.2301
   4.500   0.4651   0.00717   0.00216   0.0064  0.0452  0.9045  -1.8604   0.0000   0.2305
   5.000   0.5183   0.00750   0.00245   0.0069  0.0359  0.9168  -2.1016   0.0000   0.2308
   5.500   0.5719   0.00778   0.00274   0.0072  0.0331  0.9275  -2.3529   0.0000   0.2311
   6.000   0.6251   0.00809   0.00305   0.0076  0.0313  0.9377  -2.6130   0.0000   0.2311
   6.500   0.6769   0.00849   0.00348   0.0083  0.0291  0.9475  -2.8700   0.0000   0.2307
   7.000   0.7290   0.00880   0.00382   0.0089  0.0286  0.9566  -3.1503   0.0000   0.2303
   7.500   0.7799   0.00915   0.00419   0.0097  0.0278  0.9653  -3.4681   0.0000   0.2295
   8.000   0.8302   0.00953   0.00458   0.0107  0.0266  0.9734  -3.8321   0.0000   0.2286
   8.500   0.8789   0.01009   0.00517   0.0118  0.0250  0.9810  -4.2202   0.0000   0.2275
   9.000   0.9307   0.01050   0.00560   0.0123  0.0244  0.9876  -4.6588   0.0000   0.2272
   9.500   0.9899   0.01092   0.00603   0.0110  0.0236  0.9905  -5.1476   0.0000   0.2287
  10.000   1.0492   0.01141   0.00652   0.0096  0.0226  0.9928  -5.6724   0.0000   0.2300
  10.500   1.1056   0.01206   0.00717   0.0087  0.0213  0.9952  -6.2469   0.0000   0.2306
  11.000   1.1652   0.01261   0.00774   0.0072  0.0206  0.9961  -6.8757   0.0000   0.2317
  11.500   1.2245   0.01310   0.00823   0.0056  0.0196  0.9974  -7.5315   0.0000   0.2325
  12.000   1.2816   0.01373   0.00885   0.0044  0.0182  0.9988  -8.1969   0.0000   0.2329
  12.500   1.3365   0.01441   0.00957   0.0036  0.0172  1.0000  -8.8699   0.0000   0.2329
  13.000   1.3618   0.01490   0.01008   0.0092  0.0163  1.0000  -9.3812   0.0000   0.2281
  13.500   1.3904   0.01558   0.01078   0.0138  0.0149  1.0000  -9.9220   0.0000   0.2240
  14.000   1.4208   0.01627   0.01153   0.0180  0.0141  1.0000  -10.4869   0.0000   0.2205
  14.500   1.4520   0.01718   0.01247   0.0215  0.0128  1.0000  -11.0676   0.0000   0.2174
  15.000   1.4827   0.01825   0.01360   0.0248  0.0117  1.0000  -11.6547   0.0000   0.2146
  15.500   1.5110   0.01953   0.01493   0.0281  0.0107  1.0000  -12.2338   0.0000   0.2118
  16.000   1.5365   0.02101   0.01650   0.0314  0.0099  1.0000  -12.7987   0.0000   0.2090
  16.500   1.5613   0.02258   0.01816   0.0345  0.0094  1.0000  -13.3933   0.0000   0.2064
  17.000   1.5809   0.02459   0.02026   0.0376  0.0088  1.0000  -13.9511   0.0000   0.2036
  17.500   1.5942   0.02717   0.02297   0.0408  0.0081  1.0000  -14.4545   0.0000   0.2008
  18.000   1.6102   0.02971   0.02563   0.0430  0.0079  1.0000  -14.9933   0.0000   0.1985
  18.500   1.6201   0.03294   0.02899   0.0450  0.0076  1.0000  -15.4781   0.0000   0.1963
  19.000   1.6230   0.03707   0.03326   0.0464  0.0073  1.0000  -15.9077   0.0000   0.1942
  19.500   1.6176   0.04244   0.03880   0.0469  0.0070  1.0000  -16.2474   0.0000   0.1925
  20.000   1.6019   0.04967   0.04623   0.0458  0.0067  1.0000  -16.4586   0.0000   0.1915
  20.500   1.5743   0.05939   0.05618   0.0423  0.0065  1.0000  -16.5091   0.0000   0.1917
  21.000   1.5350   0.07197   0.06902   0.0363  0.0065  1.0000  -16.3816   0.0000   0.1934
  21.500   1.4365   0.09565   0.09311   0.0234  0.0065  1.0000  -15.4136   0.0000   0.1991
  22.000   1.1406   0.15964   0.15796  -0.0141  0.0077  1.0000  -11.1732   0.0000   0.2267
  22.500   1.0225   0.19675   0.19539  -0.0383  0.0077  1.0000  -8.8846   0.0000   0.2517
  23.000   0.9947   0.21423   0.21297  -0.0501  0.0072  1.0000  -8.1041   0.0000   0.2640
  23.500   0.9914   0.22512   0.22388  -0.0579  0.0065  1.0000  -7.8533   0.0000   0.2711
  24.000   0.9855   0.23730   0.23614  -0.0663  0.0062  1.0000  -7.4442   0.0000   0.2794
  24.500   0.9867   0.24754   0.24642  -0.0737  0.0057  1.0000  -7.1847   0.0000   0.2859
  25.000   0.9974   0.25417   0.25304  -0.0792  0.0053  1.0000  -7.2499   0.0000   0.2894


