xflr5 v6.33

 Calculated polar for: NACA 0012-64

 1 1 Reynolds number fixed          Mach number fixed         

 xtrf =   1.000 (top)        1.000 (bottom)
 Mach =   0.000     Re =     1.700 e 6     Ncrit =   9.000

  alpha     CL        CD       CDp       Cm    Top Xtr Bot Xtr   Cpmin    Chinge    XCp    
 ------- -------- --------- --------- -------- ------- ------- -------- --------- ---------
 -22.000  -1.0001   0.19238   0.19078   0.0346  1.0000  0.0097  -8.4346   0.0000   0.2502
 -21.500  -1.0423   0.17280   0.17102   0.0219  1.0000  0.0101  -9.3164   0.0000   0.2372
 -21.000  -1.1213   0.14678   0.14478   0.0055  1.0000  0.0102  -10.6086   0.0000   0.2218
 -20.500  -1.3598   0.09376   0.09111  -0.0246  1.0000  0.0093  -13.7831   0.0000   0.1999
 -20.000  -1.4500   0.07079   0.06772  -0.0373  1.0000  0.0091  -14.6320   0.0000   0.1938
 -19.500  -1.4902   0.05790   0.05454  -0.0435  1.0000  0.0092  -14.7797   0.0000   0.1918
 -19.000  -1.5107   0.04909   0.04549  -0.0465  1.0000  0.0095  -14.6703   0.0000   0.1917
 -18.500  -1.5193   0.04266   0.03885  -0.0474  1.0000  0.0097  -14.4146   0.0000   0.1926
 -18.000  -1.5188   0.03782   0.03381  -0.0470  1.0000  0.0100  -14.0567   0.0000   0.1941
 -17.500  -1.5211   0.03315   0.02896  -0.0454  1.0000  0.0106  -13.7258   0.0000   0.1964
 -17.000  -1.5125   0.02981   0.02548  -0.0432  1.0000  0.0112  -13.2830   0.0000   0.1988
 -16.500  -1.4967   0.02725   0.02279  -0.0407  1.0000  0.0118  -12.7791   0.0000   0.2012
 -16.000  -1.4784   0.02502   0.02042  -0.0378  1.0000  0.0126  -12.2631   0.0000   0.2039
 -15.500  -1.4559   0.02318   0.01851  -0.0349  1.0000  0.0136  -11.7358   0.0000   0.2065
 -15.000  -1.4281   0.02178   0.01701  -0.0321  1.0000  0.0145  -11.1746   0.0000   0.2089
 -14.500  -1.4005   0.02040   0.01554  -0.0289  1.0000  0.0156  -10.6276   0.0000   0.2116
 -14.000  -1.3678   0.01940   0.01450  -0.0262  1.0000  0.0167  -10.0486   0.0000   0.2140
 -13.500  -1.3330   0.01862   0.01363  -0.0234  1.0000  0.0176  -9.4683   0.0000   0.2165
 -13.000  -1.3044   0.01767   0.01264  -0.0193  1.0000  0.0188  -8.9441   0.0000   0.2200
 -12.500  -1.2736   0.01719   0.01213  -0.0151  1.0000  0.0198  -8.4078   0.0000   0.2238
 -12.000  -1.2421   0.01676   0.01166  -0.0109  1.0000  0.0207  -7.8830   0.0000   0.2276
 -11.500  -1.2207   0.01605   0.01087  -0.0047  1.0000  0.0215  -7.4387   0.0000   0.2333
 -11.000  -1.1837   0.01543   0.01022  -0.0017  0.9994  0.0226  -6.9133   0.0000   0.2364
 -10.500  -1.1244   0.01480   0.00956  -0.0033  0.9977  0.0237  -6.2855   0.0000   0.2356
 -10.000  -1.0642   0.01423   0.00894  -0.0051  0.9961  0.0245  -5.6865   0.0000   0.2344
  -9.500  -1.0072   0.01325   0.00791  -0.0064  0.9942  0.0260  -5.1772   0.0000   0.2335
  -9.000  -0.9485   0.01259   0.00724  -0.0077  0.9914  0.0272  -4.6939   0.0000   0.2322
  -8.500  -0.8864   0.01202   0.00664  -0.0098  0.9894  0.0284  -4.2162   0.0000   0.2299
  -8.000  -0.8226   0.01142   0.00601  -0.0121  0.9880  0.0293  -3.7715   0.0000   0.2267
  -7.500  -0.7665   0.01063   0.00520  -0.0128  0.9836  0.0313  -3.4014   0.0000   0.2252
  -7.000  -0.7083   0.01010   0.00465  -0.0137  0.9793  0.0327  -3.0695   0.0000   0.2230
  -6.500  -0.6563   0.00967   0.00419  -0.0131  0.9716  0.0338  -2.7916   0.0000   0.2228
  -6.000  -0.6064   0.00919   0.00368  -0.0121  0.9629  0.0361  -2.5454   0.0000   0.2233
  -5.500  -0.5557   0.00879   0.00329  -0.0111  0.9540  0.0390  -2.2980   0.0000   0.2236
  -5.000  -0.5049   0.00839   0.00290  -0.0101  0.9441  0.0455  -2.0605   0.0000   0.2239
  -4.500  -0.4543   0.00792   0.00255  -0.0091  0.9337  0.0705  -1.8299   0.0000   0.2241
  -4.000  -0.4026   0.00753   0.00225  -0.0084  0.9223  0.0951  -1.6080   0.0000   0.2236
  -3.500  -0.3512   0.00709   0.00197  -0.0076  0.9100  0.1383  -1.4026   0.0000   0.2230
  -3.000  -0.2998   0.00663   0.00172  -0.0069  0.8975  0.1989  -1.2045   0.0000   0.2219
  -2.500  -0.2497   0.00607   0.00146  -0.0059  0.8840  0.2891  -1.0267   0.0000   0.2213
  -2.000  -0.2041   0.00517   0.00118  -0.0042  0.8692  0.4645  -0.8653   0.0000   0.2247
  -1.500  -0.1561   0.00455   0.00100  -0.0027  0.8529  0.5986  -0.7056   0.0000   0.2279
  -1.000  -0.1046   0.00429   0.00091  -0.0017  0.8296  0.6700  -0.5472   0.0000   0.2288
  -0.500  -0.0528   0.00415   0.00085  -0.0008  0.8002  0.7265  -0.4258   0.0000   0.2311
   0.000   0.0000   0.00411   0.00084  -0.0000  0.7672  0.7672  -0.3381   0.0000   0.4423
   0.500   0.0528   0.00415   0.00085   0.0008  0.7264  0.8002  -0.4258   0.0000   0.2311
   1.000   0.1046   0.00429   0.00091   0.0017  0.6700  0.8297  -0.5472   0.0000   0.2288
   1.500   0.1561   0.00455   0.00100   0.0027  0.5986  0.8529  -0.7056   0.0000   0.2279
   2.000   0.2041   0.00517   0.00118   0.0042  0.4645  0.8692  -0.8653   0.0000   0.2247
   2.500   0.2497   0.00607   0.00146   0.0059  0.2891  0.8840  -1.0267   0.0000   0.2213
   3.000   0.2999   0.00663   0.00172   0.0069  0.1989  0.8975  -1.2045   0.0000   0.2219
   3.500   0.3512   0.00709   0.00197   0.0076  0.1383  0.9100  -1.4026   0.0000   0.2230
   4.000   0.4027   0.00753   0.00225   0.0084  0.0951  0.9223  -1.6081   0.0000   0.2236
   4.500   0.4544   0.00792   0.00255   0.0091  0.0705  0.9337  -1.8300   0.0000   0.2241
   5.000   0.5049   0.00839   0.00290   0.0101  0.0455  0.9441  -2.0606   0.0000   0.2239
   5.500   0.5557   0.00879   0.00329   0.0111  0.0390  0.9540  -2.2982   0.0000   0.2236
   6.000   0.6064   0.00919   0.00368   0.0120  0.0361  0.9629  -2.5455   0.0000   0.2233
   6.500   0.6564   0.00967   0.00419   0.0131  0.0338  0.9716  -2.7918   0.0000   0.2228
   7.000   0.7084   0.01010   0.00465   0.0137  0.0327  0.9793  -3.0698   0.0000   0.2230
   7.500   0.7666   0.01063   0.00520   0.0128  0.0313  0.9837  -3.4017   0.0000   0.2252
   8.000   0.8227   0.01142   0.00601   0.0121  0.0293  0.9880  -3.7719   0.0000   0.2267
   8.500   0.8865   0.01202   0.00664   0.0097  0.0284  0.9894  -4.2167   0.0000   0.2300
   9.000   0.9486   0.01259   0.00724   0.0077  0.0272  0.9914  -4.6944   0.0000   0.2323
   9.500   1.0073   0.01325   0.00791   0.0063  0.0260  0.9942  -5.1777   0.0000   0.2335
  10.000   1.0644   0.01423   0.00894   0.0051  0.0245  0.9961  -5.6874   0.0000   0.2344
  10.500   1.1246   0.01480   0.00956   0.0033  0.0237  0.9977  -6.2866   0.0000   0.2356
  11.000   1.1839   0.01543   0.01022   0.0016  0.0226  0.9995  -6.9146   0.0000   0.2365
  11.500   1.2206   0.01605   0.01086   0.0047  0.0215  1.0000  -7.4381   0.0000   0.2333
  12.000   1.2421   0.01676   0.01165   0.0109  0.0207  1.0000  -7.8830   0.0000   0.2276
  12.500   1.2738   0.01718   0.01213   0.0151  0.0198  1.0000  -8.4086   0.0000   0.2238
  13.000   1.3049   0.01767   0.01263   0.0192  0.0188  1.0000  -8.9471   0.0000   0.2201
  13.500   1.3336   0.01862   0.01363   0.0233  0.0176  1.0000  -9.4723   0.0000   0.2166
  14.000   1.3685   0.01940   0.01450   0.0260  0.0167  1.0000  -10.0533   0.0000   0.2142
  14.500   1.4013   0.02040   0.01554   0.0288  0.0156  1.0000  -10.6330   0.0000   0.2117
  15.000   1.4290   0.02178   0.01700   0.0319  0.0145  1.0000  -11.1811   0.0000   0.2090
  15.500   1.4570   0.02317   0.01850   0.0347  0.0136  1.0000  -11.7432   0.0000   0.2066
  16.000   1.4795   0.02502   0.02042   0.0376  0.0126  1.0000  -12.2711   0.0000   0.2040
  16.500   1.4980   0.02724   0.02277   0.0405  0.0118  1.0000  -12.7893   0.0000   0.2014
  17.000   1.5139   0.02979   0.02546   0.0430  0.0112  1.0000  -13.2945   0.0000   0.1990
  17.500   1.5227   0.03313   0.02893   0.0452  0.0106  1.0000  -13.7382   0.0000   0.1966
  18.000   1.5208   0.03776   0.03375   0.0467  0.0100  1.0000  -14.0732   0.0000   0.1943
  18.500   1.5215   0.04260   0.03878   0.0471  0.0097  1.0000  -14.4329   0.0000   0.1928
  19.000   1.5131   0.04901   0.04541   0.0462  0.0094  1.0000  -14.6907   0.0000   0.1919
  19.500   1.4928   0.05780   0.05444   0.0432  0.0092  1.0000  -14.8023   0.0000   0.1921
  20.000   1.4529   0.07066   0.06759   0.0370  0.0091  1.0000  -14.6584   0.0000   0.1941
  20.500   1.3631   0.09358   0.09093   0.0243  0.0093  1.0000  -13.8144   0.0000   0.2001
  21.000   1.1221   0.14712   0.14512  -0.0060  0.0102  1.0000  -10.6040   0.0000   0.2223
  21.500   1.0438   0.17308   0.17130  -0.0223  0.0100  1.0000  -9.3221   0.0000   0.2375
  22.000   1.0012   0.19286   0.19126  -0.0351  0.0097  1.0000  -8.4315   0.0000   0.2506
  22.500   0.9376   0.22225   0.22084  -0.0533  0.0085  1.0000  -6.6102   0.0000   0.2729
  27.500   1.0108   0.32472   0.32337  -0.1185  0.0035  1.0000  -2.2623   0.0000   0.3269
  28.000   1.0253   0.32976   0.32843  -0.1235  0.0032  1.0000  -2.3237   0.0000   0.3288
  28.500   1.0393   0.33439   0.33306  -0.1286  0.0031  1.0000  -2.4227   0.0000   0.3305
  29.000   1.0528   0.33860   0.33728  -0.1336  0.0030  1.0000  -2.5534   0.0000   0.3321
  29.500   1.0658   0.34321   0.34190  -0.1386  0.0029  1.0000  -2.6259   0.0000   0.3337
  30.000   1.0812   0.35171   0.35041  -0.1445  0.0026  1.0000  -2.2493   0.0000   0.3364
  30.500   1.0945   0.35668   0.35538  -0.1498  0.0024  1.0000  -2.2864   0.0000   0.3381
  31.000   1.1072   0.36114   0.35985  -0.1551  0.0022  1.0000  -2.3634   0.0000   0.3397
  31.500   1.1192   0.36518   0.36390  -0.1604  0.0022  1.0000  -2.4774   0.0000   0.3412
  32.000   1.1305   0.36883   0.36757  -0.1657  0.0021  1.0000  -2.6189   0.0000   0.3425
  32.500   1.1432   0.37498   0.37373  -0.1714  0.0021  1.0000  -2.4583   0.0000   0.3444
  33.000   1.1567   0.38145   0.38020  -0.1770  0.0018  1.0000  -2.2851   0.0000   0.3461
  33.500   1.1680   0.38588   0.38465  -0.1825  0.0016  1.0000  -2.3239   0.0000   0.3476
  34.000   1.1787   0.38994   0.38872  -0.1880  0.0015  1.0000  -2.3924   0.0000   0.3489
  34.500   1.1887   0.39364   0.39242  -0.1936  0.0015  1.0000  -2.4933   0.0000   0.3503
  35.000   1.1978   0.39693   0.39573  -0.1991  0.0014  1.0000  -2.6167   0.0000   0.3515
  35.500   1.2079   0.40170   0.40051  -0.2048  0.0014  1.0000  -2.5567   0.0000   0.3529
  36.000   1.2199   0.40784   0.40665  -0.2106  0.0013  1.0000  -2.3159   0.0000   0.3544
  36.500   1.2294   0.41222   0.41105  -0.2162  0.0011  1.0000  -2.3038   0.0000   0.3556
  37.000   1.2380   0.41600   0.41484  -0.2219  0.0010  1.0000  -2.3473   0.0000   0.3568
  37.500   1.2459   0.41949   0.41834  -0.2277  0.0009  1.0000  -2.4148   0.0000   0.3580
  38.000   1.2531   0.42259   0.42145  -0.2334  0.0009  1.0000  -2.5100   0.0000   0.3592
  38.500   1.2593   0.42531   0.42419  -0.2392  0.0009  1.0000  -2.6237   0.0000   0.3602
  39.000   1.2674   0.42976   0.42865  -0.2451  0.0008  1.0000  -2.5313   0.0000   0.3615
  39.500   1.2763   0.43494   0.43384  -0.2509  0.0008  1.0000  -2.4045   0.0000   0.3626
  40.000   1.2832   0.43886   0.43777  -0.2566  0.0006  1.0000  -2.3918   0.0000   0.3636
  40.500   1.2890   0.44225   0.44117  -0.2625  0.0005  1.0000  -2.4288   0.0000   0.3646


