xflr5 v6.33

 Calculated polar for: NACA 0012-64

 1 1 Reynolds number fixed          Mach number fixed         

 xtrf =   1.000 (top)        1.000 (bottom)
 Mach =   0.000     Re =     2.500 e 6     Ncrit =   9.000

  alpha     CL        CD       CDp       Cm    Top Xtr Bot Xtr   Cpmin    Chinge    XCp    
 ------- -------- --------- --------- -------- ------- ------- -------- --------- ---------
 -24.500  -0.9620   0.25609   0.25495   0.0779  1.0000  0.0054  -6.1941   0.0000   0.2934
 -24.000  -0.9498   0.24977   0.24862   0.0727  1.0000  0.0057  -6.1222   0.0000   0.2901
 -23.500  -0.9787   0.22792   0.22665   0.0594  1.0000  0.0070  -7.5047   0.0000   0.2737
 -23.000  -0.9847   0.21612   0.21481   0.0511  1.0000  0.0076  -7.8589   0.0000   0.2657
 -22.500  -1.0067   0.20013   0.19870   0.0403  1.0000  0.0080  -8.5420   0.0000   0.2544
 -22.000  -1.0436   0.18153   0.17998   0.0278  1.0000  0.0085  -9.3784   0.0000   0.2417
 -21.500  -1.1773   0.14338   0.14146   0.0035  1.0000  0.0082  -11.6564   0.0000   0.2185
 -21.000  -1.4794   0.08050   0.07769  -0.0322  1.0000  0.0073  -15.6738   0.0000   0.1951
 -20.500  -1.5370   0.06441   0.06128  -0.0405  1.0000  0.0073  -16.0578   0.0000   0.1921
 -20.000  -1.5677   0.05374   0.05037  -0.0450  1.0000  0.0074  -16.0597   0.0000   0.1913
 -19.500  -1.5836   0.04604   0.04247  -0.0469  1.0000  0.0076  -15.8626   0.0000   0.1918
 -19.000  -1.5892   0.04027   0.03652  -0.0472  1.0000  0.0079  -15.5374   0.0000   0.1930
 -18.500  -1.5866   0.03585   0.03194  -0.0465  1.0000  0.0081  -15.1299   0.0000   0.1947
 -18.000  -1.5836   0.03183   0.02775  -0.0447  1.0000  0.0085  -14.7269   0.0000   0.1970
 -17.500  -1.5759   0.02851   0.02430  -0.0422  1.0000  0.0090  -14.2754   0.0000   0.1995
 -17.000  -1.5611   0.02596   0.02163  -0.0395  1.0000  0.0095  -13.7601   0.0000   0.2021
 -16.500  -1.5406   0.02397   0.01951  -0.0367  1.0000  0.0099  -13.1995   0.0000   0.2046
 -16.000  -1.5203   0.02203   0.01747  -0.0334  1.0000  0.0107  -12.6533   0.0000   0.2075
 -15.500  -1.4957   0.02045   0.01582  -0.0301  1.0000  0.0116  -12.0971   0.0000   0.2103
 -15.000  -1.4672   0.01917   0.01446  -0.0270  1.0000  0.0125  -11.5214   0.0000   0.2130
 -14.500  -1.4375   0.01801   0.01325  -0.0237  1.0000  0.0138  -10.9451   0.0000   0.2158
 -14.000  -1.4045   0.01715   0.01232  -0.0206  1.0000  0.0147  -10.3549   0.0000   0.2185
 -13.500  -1.3753   0.01628   0.01143  -0.0165  1.0000  0.0160  -9.8041   0.0000   0.2220
 -13.000  -1.3451   0.01567   0.01078  -0.0122  1.0000  0.0171  -9.2543   0.0000   0.2257
 -12.500  -1.3163   0.01519   0.01025  -0.0074  1.0000  0.0176  -8.7256   0.0000   0.2300
 -12.000  -1.2862   0.01453   0.00957  -0.0029  0.9997  0.0190  -8.2059   0.0000   0.2341
 -11.500  -1.2284   0.01398   0.00903  -0.0043  0.9984  0.0202  -7.5338   0.0000   0.2337
 -11.000  -1.1689   0.01352   0.00855  -0.0059  0.9969  0.0209  -6.8761   0.0000   0.2328
 -10.500  -1.1115   0.01270   0.00769  -0.0072  0.9956  0.0223  -6.2651   0.0000   0.2321
 -10.000  -1.0529   0.01216   0.00714  -0.0085  0.9938  0.0233  -5.6755   0.0000   0.2311
  -9.500  -0.9936   0.01165   0.00663  -0.0099  0.9916  0.0242  -5.1495   0.0000   0.2298
  -9.000  -0.9318   0.01126   0.00623  -0.0118  0.9897  0.0247  -4.6486   0.0000   0.2277
  -8.500  -0.8748   0.01046   0.00539  -0.0128  0.9867  0.0264  -4.2000   0.0000   0.2264
  -8.000  -0.8224   0.01000   0.00493  -0.0124  0.9802  0.0276  -3.7960   0.0000   0.2264
  -7.500  -0.7715   0.00961   0.00452  -0.0116  0.9728  0.0286  -3.4324   0.0000   0.2269
  -7.000  -0.7210   0.00925   0.00413  -0.0107  0.9644  0.0292  -3.1185   0.0000   0.2276
  -6.500  -0.6715   0.00876   0.00360  -0.0095  0.9554  0.0311  -2.8548   0.0000   0.2287
  -6.000  -0.6200   0.00840   0.00323  -0.0088  0.9462  0.0327  -2.5929   0.0000   0.2291
  -5.500  -0.5673   0.00811   0.00292  -0.0082  0.9361  0.0340  -2.3353   0.0000   0.2291
  -5.000  -0.5146   0.00775   0.00258  -0.0077  0.9257  0.0385  -2.0897   0.0000   0.2290
  -4.500  -0.4621   0.00738   0.00226  -0.0072  0.9140  0.0528  -1.8518   0.0000   0.2288
  -4.000  -0.4094   0.00701   0.00199  -0.0067  0.9017  0.0775  -1.6242   0.0000   0.2283
  -3.500  -0.3560   0.00670   0.00176  -0.0063  0.8890  0.1021  -1.4134   0.0000   0.2271
  -3.000  -0.3034   0.00631   0.00153  -0.0058  0.8754  0.1504  -1.2123   0.0000   0.2260
  -2.500  -0.2508   0.00593   0.00134  -0.0052  0.8609  0.2085  -1.0292   0.0000   0.2242
  -2.000  -0.1999   0.00542   0.00113  -0.0045  0.8450  0.3043  -0.8589   0.0000   0.2230
  -1.500  -0.1539   0.00463   0.00089  -0.0027  0.8214  0.4810  -0.7030   0.0000   0.2275
  -1.000  -0.1035   0.00426   0.00077  -0.0017  0.7906  0.5810  -0.5465   0.0000   0.2290
  -0.500  -0.0518   0.00407   0.00070  -0.0009  0.7574  0.6535  -0.4252   0.0000   0.2291
   0.000  -0.0000   0.00393   0.00068   0.0000  0.7216  0.7216  -0.3384   0.0000   0.4750
   0.500   0.0519   0.00407   0.00070   0.0009  0.6535  0.7574  -0.4252   0.0000   0.2291
   1.000   0.1035   0.00426   0.00077   0.0017  0.5810  0.7906  -0.5465   0.0000   0.2291
   1.500   0.1539   0.00463   0.00089   0.0027  0.4810  0.8214  -0.7030   0.0000   0.2275
   2.000   0.1999   0.00542   0.00113   0.0044  0.3043  0.8450  -0.8590   0.0000   0.2230
   2.500   0.2509   0.00593   0.00134   0.0052  0.2085  0.8609  -1.0292   0.0000   0.2242
   3.000   0.3034   0.00631   0.00153   0.0058  0.1504  0.8754  -1.2123   0.0000   0.2260
   3.500   0.3560   0.00670   0.00176   0.0063  0.1021  0.8891  -1.4134   0.0000   0.2271
   4.000   0.4095   0.00701   0.00199   0.0066  0.0775  0.9017  -1.6243   0.0000   0.2283
   4.500   0.4621   0.00738   0.00226   0.0072  0.0528  0.9140  -1.8519   0.0000   0.2288
   5.000   0.5146   0.00775   0.00258   0.0077  0.0385  0.9256  -2.0898   0.0000   0.2290
   5.500   0.5674   0.00811   0.00291   0.0082  0.0340  0.9360  -2.3355   0.0000   0.2291
   6.000   0.6201   0.00840   0.00323   0.0088  0.0327  0.9462  -2.5931   0.0000   0.2291
   6.500   0.6716   0.00876   0.00360   0.0095  0.0311  0.9554  -2.8551   0.0000   0.2287
   7.000   0.7212   0.00925   0.00413   0.0107  0.0292  0.9644  -3.1188   0.0000   0.2276
   7.500   0.7716   0.00961   0.00452   0.0116  0.0286  0.9727  -3.4327   0.0000   0.2269
   8.000   0.8225   0.01000   0.00493   0.0124  0.0276  0.9802  -3.7964   0.0000   0.2264
   8.500   0.8749   0.01046   0.00539   0.0127  0.0264  0.9867  -4.2005   0.0000   0.2264
   9.000   0.9319   0.01126   0.00623   0.0118  0.0247  0.9897  -4.6492   0.0000   0.2278
   9.500   0.9937   0.01165   0.00662   0.0099  0.0242  0.9916  -5.1501   0.0000   0.2299
  10.000   1.0531   0.01216   0.00714   0.0085  0.0233  0.9939  -5.6761   0.0000   0.2312
  10.500   1.1117   0.01270   0.00769   0.0071  0.0223  0.9956  -6.2662   0.0000   0.2321
  11.000   1.1691   0.01352   0.00854   0.0058  0.0209  0.9969  -6.8773   0.0000   0.2329
  11.500   1.2287   0.01398   0.00902   0.0042  0.0202  0.9984  -7.5351   0.0000   0.2337
  12.000   1.2865   0.01453   0.00957   0.0029  0.0190  0.9997  -8.2075   0.0000   0.2341
  12.500   1.3162   0.01519   0.01025   0.0074  0.0176  1.0000  -8.7251   0.0000   0.2300
  13.000   1.3452   0.01567   0.01078   0.0122  0.0171  1.0000  -9.2549   0.0000   0.2258
  13.500   1.3757   0.01628   0.01143   0.0164  0.0160  1.0000  -9.8071   0.0000   0.2221
  14.000   1.4051   0.01715   0.01232   0.0205  0.0147  1.0000  -10.3591   0.0000   0.2186
  14.500   1.4382   0.01801   0.01325   0.0236  0.0138  1.0000  -10.9500   0.0000   0.2159
  15.000   1.4680   0.01917   0.01446   0.0268  0.0125  1.0000  -11.5269   0.0000   0.2131
  15.500   1.4966   0.02045   0.01582   0.0300  0.0116  1.0000  -12.1037   0.0000   0.2104
  16.000   1.5214   0.02203   0.01747   0.0332  0.0107  1.0000  -12.6607   0.0000   0.2076
  16.500   1.5418   0.02395   0.01950   0.0365  0.0099  1.0000  -13.2090   0.0000   0.2048
  17.000   1.5625   0.02595   0.02161   0.0393  0.0095  1.0000  -13.7708   0.0000   0.2023
  17.500   1.5774   0.02850   0.02428   0.0420  0.0090  1.0000  -14.2874   0.0000   0.1997
  18.000   1.5852   0.03181   0.02773   0.0444  0.0085  1.0000  -14.7396   0.0000   0.1972
  18.500   1.5886   0.03580   0.03189   0.0462  0.0081  1.0000  -15.1474   0.0000   0.1949
  19.000   1.5914   0.04021   0.03646   0.0469  0.0078  1.0000  -15.5573   0.0000   0.1932
  19.500   1.5860   0.04597   0.04239   0.0466  0.0076  1.0000  -15.8845   0.0000   0.1920
  20.000   1.5703   0.05364   0.05027   0.0446  0.0074  1.0000  -16.0840   0.0000   0.1915
  20.500   1.5398   0.06429   0.06116   0.0402  0.0073  1.0000  -16.0847   0.0000   0.1923
  21.000   1.4825   0.08035   0.07754   0.0319  0.0073  1.0000  -15.7045   0.0000   0.1954
  21.500   1.3063   0.11899   0.11679   0.0105  0.0077  1.0000  -13.5787   0.0000   0.2073
  22.000   1.0447   0.18198   0.18043  -0.0283  0.0084  1.0000  -9.3751   0.0000   0.2422
  22.500   1.0081   0.20060   0.19918  -0.0407  0.0080  1.0000  -8.5437   0.0000   0.2548
  23.000   0.9861   0.21672   0.21541  -0.0516  0.0075  1.0000  -7.8611   0.0000   0.2661
  23.500   0.9804   0.22858   0.22731  -0.0598  0.0070  1.0000  -7.5132   0.0000   0.2741
  24.000   0.9784   0.23971   0.23849  -0.0677  0.0064  1.0000  -7.1867   0.0000   0.2814
  24.500   0.9641   0.25701   0.25587  -0.0784  0.0054  1.0000  -6.2080   0.0000   0.2937


