xflr5 v6.33

 Calculated polar for: NACA 0012 v1

 1 1 Reynolds number fixed          Mach number fixed         

 xtrf =   1.000 (top)        1.000 (bottom)
 Mach =   0.000     Re =     2.500 e 6     Ncrit =   9.000

  alpha     CL        CD       CDp       Cm    Top Xtr Bot Xtr   Cpmin    Chinge    XCp    
 ------- -------- --------- --------- -------- ------- ------- -------- --------- ---------
 -29.000  -0.6846   0.31080   0.30991   0.0824  1.0000  0.0030  -1.4362   0.0000   0.3418
 -25.500  -1.1130   0.24887   0.24764   0.1065  1.0000  0.0070  -7.7484   0.0000   0.3042
 -25.000  -1.1178   0.23792   0.23663   0.0973  1.0000  0.0075  -8.1838   0.0000   0.2963
 -24.500  -1.1253   0.22641   0.22504   0.0880  1.0000  0.0079  -8.5993   0.0000   0.2881
 -24.000  -1.1331   0.21531   0.21384   0.0789  1.0000  0.0082  -8.9377   0.0000   0.2803
 -23.500  -1.1412   0.20450   0.20293   0.0700  1.0000  0.0084  -9.2110   0.0000   0.2730
 -23.000  -1.1497   0.19385   0.19218   0.0615  1.0000  0.0086  -9.4357   0.0000   0.2661
 -22.500  -1.1659   0.18167   0.17991   0.0519  1.0000  0.0089  -9.7501   0.0000   0.2581
 -22.000  -1.1961   0.16671   0.16482   0.0407  1.0000  0.0090  -10.2270   0.0000   0.2485
 -21.500  -1.2469   0.14808   0.14599   0.0274  1.0000  0.0091  -10.9143   0.0000   0.2374
 -21.000  -1.3253   0.12522   0.12285   0.0125  1.0000  0.0090  -11.8305   0.0000   0.2259
 -20.500  -1.4174   0.10144   0.09873  -0.0012  1.0000  0.0089  -12.7439   0.0000   0.2167
 -20.000  -1.4979   0.08093   0.07790  -0.0120  1.0000  0.0088  -13.3993   0.0000   0.2109
 -19.500  -1.5575   0.06472   0.06140  -0.0202  1.0000  0.0088  -13.7608   0.0000   0.2074
 -19.000  -1.5958   0.05252   0.04894  -0.0259  1.0000  0.0089  -13.8639   0.0000   0.2055
 -18.500  -1.6152   0.04365   0.03986  -0.0294  1.0000  0.0091  -13.7548   0.0000   0.2048
 -18.000  -1.6208   0.03722   0.03325  -0.0311  1.0000  0.0093  -13.4986   0.0000   0.2051
 -17.500  -1.6171   0.03245   0.02833  -0.0313  1.0000  0.0095  -13.1491   0.0000   0.2062
 -17.000  -1.6069   0.02885   0.02460  -0.0303  1.0000  0.0097  -12.7482   0.0000   0.2078
 -16.500  -1.5918   0.02609   0.02171  -0.0283  1.0000  0.0100  -12.3164   0.0000   0.2100
 -16.000  -1.5720   0.02399   0.01949  -0.0258  1.0000  0.0102  -11.8504   0.0000   0.2124
 -15.500  -1.5539   0.02198   0.01736  -0.0222  1.0000  0.0105  -11.4068   0.0000   0.2155
 -15.000  -1.5322   0.02039   0.01567  -0.0182  1.0000  0.0110  -10.9382   0.0000   0.2188
 -14.500  -1.5023   0.01920   0.01442  -0.0149  1.0000  0.0115  -10.4178   0.0000   0.2217
 -14.000  -1.4643   0.01819   0.01333  -0.0128  1.0000  0.0119  -9.8567   0.0000   0.2238
 -13.500  -1.4249   0.01713   0.01220  -0.0108  1.0000  0.0124  -9.3053   0.0000   0.2258
 -13.000  -1.3839   0.01610   0.01113  -0.0090  1.0000  0.0132  -8.7559   0.0000   0.2277
 -12.500  -1.3395   0.01528   0.01026  -0.0075  1.0000  0.0139  -8.1983   0.0000   0.2294
 -12.000  -1.2945   0.01446   0.00938  -0.0061  1.0000  0.0147  -7.6758   0.0000   0.2311
 -11.500  -1.2487   0.01369   0.00859  -0.0048  1.0000  0.0158  -7.1633   0.0000   0.2328
 -11.000  -1.2018   0.01304   0.00790  -0.0035  1.0000  0.0167  -6.6603   0.0000   0.2344
 -10.500  -1.1563   0.01236   0.00721  -0.0018  1.0000  0.0181  -6.1790   0.0000   0.2364
 -10.000  -1.1115   0.01178   0.00661   0.0001  1.0000  0.0195  -5.7156   0.0000   0.2388
  -9.500  -1.0676   0.01125   0.00608   0.0023  1.0000  0.0212  -5.2816   0.0000   0.2415
  -9.000  -1.0255   0.01073   0.00556   0.0049  1.0000  0.0233  -4.8771   0.0000   0.2448
  -8.500  -0.9671   0.01019   0.00503   0.0040  0.9988  0.0261  -4.4216   0.0000   0.2447
  -8.000  -0.9025   0.00968   0.00454   0.0018  0.9970  0.0298  -3.9679   0.0000   0.2431
  -7.500  -0.8377   0.00917   0.00407  -0.0004  0.9950  0.0348  -3.5466   0.0000   0.2411
  -7.000  -0.7721   0.00868   0.00364  -0.0027  0.9929  0.0416  -3.1435   0.0000   0.2385
  -6.500  -0.7098   0.00823   0.00324  -0.0043  0.9879  0.0504  -2.7837   0.0000   0.2364
  -6.000  -0.6519   0.00780   0.00289  -0.0048  0.9787  0.0622  -2.4587   0.0000   0.2356
  -5.500  -0.5985   0.00741   0.00256  -0.0042  0.9643  0.0778  -2.1688   0.0000   0.2363
  -5.000  -0.5463   0.00703   0.00225  -0.0033  0.9453  0.0988  -1.9063   0.0000   0.2376
  -4.500  -0.4935   0.00667   0.00197  -0.0025  0.9220  0.1265  -1.6630   0.0000   0.2388
  -4.000  -0.4401   0.00633   0.00170  -0.0019  0.8935  0.1616  -1.4406   0.0000   0.2399
  -3.500  -0.3863   0.00603   0.00147  -0.0014  0.8599  0.2027  -1.2395   0.0000   0.2409
  -3.000  -0.3320   0.00578   0.00127  -0.0010  0.8215  0.2482  -1.0609   0.0000   0.2417
  -2.500  -0.2773   0.00557   0.00111  -0.0007  0.7791  0.2961  -0.9037   0.0000   0.2424
  -2.000  -0.2223   0.00540   0.00099  -0.0005  0.7338  0.3453  -0.7683   0.0000   0.2430
  -1.500  -0.1670   0.00529   0.00089  -0.0003  0.6869  0.3949  -0.6537   0.0000   0.2434
  -1.000  -0.1115   0.00520   0.00083  -0.0002  0.6392  0.4444  -0.5583   0.0000   0.2438
  -0.500  -0.0558   0.00515   0.00079  -0.0001  0.5910  0.4937  -0.4794   0.0000   0.2440
   0.000  -0.0000   0.00513   0.00078  -0.0000  0.5425  0.5425  -0.4132   0.0000   0.4486
   0.500   0.0558   0.00515   0.00079   0.0001  0.4937  0.5910  -0.4794   0.0000   0.2440
   1.000   0.1115   0.00520   0.00083   0.0002  0.4444  0.6392  -0.5583   0.0000   0.2438
   1.500   0.1670   0.00529   0.00089   0.0003  0.3949  0.6869  -0.6537   0.0000   0.2434
   2.000   0.2223   0.00540   0.00099   0.0005  0.3453  0.7338  -0.7683   0.0000   0.2430
   2.500   0.2774   0.00557   0.00111   0.0007  0.2961  0.7792  -0.9037   0.0000   0.2424
   3.000   0.3320   0.00578   0.00127   0.0011  0.2482  0.8215  -1.0609   0.0000   0.2417
   4.000   0.4402   0.00633   0.00170   0.0020  0.1616  0.8935  -1.4406   0.0000   0.2399
   4.500   0.4935   0.00667   0.00197   0.0026  0.1265  0.9219  -1.6631   0.0000   0.2389
   5.000   0.5463   0.00703   0.00225   0.0034  0.0988  0.9453  -1.9064   0.0000   0.2376
   5.500   0.5985   0.00741   0.00256   0.0043  0.0778  0.9643  -2.1689   0.0000   0.2363
   6.000   0.6519   0.00780   0.00289   0.0050  0.0622  0.9787  -2.4588   0.0000   0.2356
   6.500   0.7098   0.00823   0.00324   0.0045  0.0504  0.9879  -2.7838   0.0000   0.2364
   7.000   0.7722   0.00868   0.00364   0.0030  0.0416  0.9929  -3.1436   0.0000   0.2385
   7.500   0.8378   0.00917   0.00407   0.0006  0.0348  0.9950  -3.5467   0.0000   0.2412
   8.000   0.9026   0.00968   0.00454  -0.0016  0.0298  0.9970  -3.9681   0.0000   0.2431
   8.500   0.9671   0.01019   0.00503  -0.0037  0.0261  0.9988  -4.4218   0.0000   0.2447
   9.000   1.0254   0.01072   0.00555  -0.0045  0.0233  1.0000  -4.8767   0.0000   0.2447
   9.500   1.0676   0.01125   0.00608  -0.0019  0.0212  1.0000  -5.2813   0.0000   0.2415
  10.000   1.1115   0.01178   0.00661   0.0003  0.0195  1.0000  -5.7154   0.0000   0.2388
  10.500   1.1563   0.01236   0.00721   0.0023  0.0181  1.0000  -6.1790   0.0000   0.2364
  11.000   1.2018   0.01304   0.00790   0.0040  0.0167  1.0000  -6.6605   0.0000   0.2344
  11.500   1.2487   0.01369   0.00859   0.0054  0.0158  1.0000  -7.1638   0.0000   0.2328
  12.000   1.2946   0.01446   0.00938   0.0068  0.0147  1.0000  -7.6764   0.0000   0.2311
  12.500   1.3396   0.01528   0.01026   0.0082  0.0139  1.0000  -8.1992   0.0000   0.2294
  13.000   1.3841   0.01610   0.01113   0.0097  0.0132  1.0000  -8.7570   0.0000   0.2278
  13.500   1.4252   0.01713   0.01220   0.0116  0.0124  1.0000  -9.3066   0.0000   0.2258
  14.000   1.4646   0.01819   0.01333   0.0136  0.0119  1.0000  -9.8585   0.0000   0.2238
  14.500   1.5027   0.01920   0.01442   0.0157  0.0115  1.0000  -10.4200   0.0000   0.2218
  15.000   1.5327   0.02039   0.01567   0.0191  0.0110  1.0000  -10.9415   0.0000   0.2189
  15.500   1.5545   0.02198   0.01736   0.0231  0.0105  1.0000  -11.4105   0.0000   0.2156
  16.000   1.5727   0.02398   0.01948   0.0267  0.0102  1.0000  -11.8555   0.0000   0.2125
  16.500   1.5926   0.02608   0.02170   0.0293  0.0100  1.0000  -12.3223   0.0000   0.2101
  17.000   1.6079   0.02884   0.02458   0.0313  0.0097  1.0000  -12.7553   0.0000   0.2080
  17.500   1.6183   0.03242   0.02830   0.0323  0.0095  1.0000  -13.1578   0.0000   0.2063
  18.000   1.6221   0.03718   0.03321   0.0322  0.0093  1.0000  -13.5088   0.0000   0.2053
  18.500   1.6167   0.04360   0.03981   0.0305  0.0091  1.0000  -13.7666   0.0000   0.2049
  19.000   1.5974   0.05247   0.04888   0.0269  0.0089  1.0000  -13.8765   0.0000   0.2056
  19.500   1.5591   0.06467   0.06134   0.0212  0.0088  1.0000  -13.7739   0.0000   0.2075
  20.000   1.4996   0.08089   0.07786   0.0129  0.0088  1.0000  -13.4125   0.0000   0.2111
  20.500   1.4191   0.10140   0.09869   0.0021  0.0089  1.0000  -12.7573   0.0000   0.2169
  21.000   1.3269   0.12524   0.12287  -0.0118  0.0090  1.0000  -11.8425   0.0000   0.2260
  21.500   1.2482   0.14817   0.14608  -0.0268  0.0091  1.0000  -10.9227   0.0000   0.2376
  22.000   1.1973   0.16682   0.16493  -0.0402  0.0090  1.0000  -10.2336   0.0000   0.2487
  22.500   1.1670   0.18186   0.18010  -0.0515  0.0089  1.0000  -9.7554   0.0000   0.2583
  23.000   1.1509   0.19408   0.19241  -0.0611  0.0086  1.0000  -9.4420   0.0000   0.2663
  23.500   1.1424   0.20479   0.20322  -0.0697  0.0084  1.0000  -9.2166   0.0000   0.2732
  24.000   1.1344   0.21568   0.21422  -0.0786  0.0082  1.0000  -8.9429   0.0000   0.2805
  24.500   1.1266   0.22684   0.22547  -0.0878  0.0079  1.0000  -8.6047   0.0000   0.2882
  25.000   1.1192   0.23834   0.23706  -0.0972  0.0075  1.0000  -8.1908   0.0000   0.2964
  25.500   1.1144   0.24952   0.24830  -0.1064  0.0070  1.0000  -7.7545   0.0000   0.3043


