xflr5 v6.33

 Calculated polar for: NACA 0012-64

 1 1 Reynolds number fixed          Mach number fixed         

 xtrf =   1.000 (top)        1.000 (bottom)
 Mach =   0.000     Re =     1.200 e 6     Ncrit =   9.000

  alpha     CL        CD       CDp       Cm    Top Xtr Bot Xtr   Cpmin    Chinge    XCp    
 ------- -------- --------- --------- -------- ------- ------- -------- --------- ---------
 -25.000  -0.9323   0.29434   0.29271   0.0927  1.0000  0.0060  -2.1984   0.0000   0.3152
 -24.500  -0.5774   0.24813   0.24672   0.0356  1.0000  0.0069  -1.3582   0.0000   0.2904
 -24.000  -0.5704   0.24324   0.24181   0.0329  1.0000  0.0074  -1.3248   0.0000   0.2872
 -23.500  -0.8858   0.27575   0.27410   0.0782  1.0000  0.0070  -2.2508   0.0000   0.3071
 -23.000  -0.8698   0.27000   0.26834   0.0736  1.0000  0.0075  -2.2235   0.0000   0.3045
 -21.000  -1.0270   0.16728   0.16534   0.0181  1.0000  0.0121  -8.9753   0.0000   0.2350
 -20.500  -1.0958   0.14345   0.14127   0.0035  1.0000  0.0122  -10.0660   0.0000   0.2213
 -20.000  -1.2072   0.11377   0.11128  -0.0135  1.0000  0.0120  -11.5077   0.0000   0.2080
 -19.500  -1.3389   0.08194   0.07899  -0.0309  1.0000  0.0115  -12.9720   0.0000   0.1974
 -19.000  -1.3973   0.06474   0.06143  -0.0403  1.0000  0.0115  -13.3869   0.0000   0.1931
 -18.500  -1.4250   0.05405   0.05046  -0.0451  1.0000  0.0117  -13.3912   0.0000   0.1918
 -18.000  -1.4376   0.04655   0.04271  -0.0471  1.0000  0.0120  -13.2062   0.0000   0.1920
 -17.500  -1.4475   0.04023   0.03616  -0.0475  1.0000  0.0125  -12.9781   0.0000   0.1932
 -17.000  -1.4462   0.03564   0.03142  -0.0465  1.0000  0.0131  -12.6274   0.0000   0.1950
 -16.500  -1.4340   0.03240   0.02803  -0.0450  1.0000  0.0138  -12.1740   0.0000   0.1970
 -16.000  -1.4166   0.02980   0.02526  -0.0430  1.0000  0.0146  -11.6886   0.0000   0.1990
 -15.500  -1.4019   0.02717   0.02249  -0.0402  1.0000  0.0155  -11.2461   0.0000   0.2017
 -15.000  -1.3758   0.02550   0.02075  -0.0379  1.0000  0.0164  -10.7089   0.0000   0.2038
 -14.500  -1.3464   0.02413   0.01925  -0.0355  1.0000  0.0174  -10.1608   0.0000   0.2059
 -14.000  -1.3210   0.02255   0.01757  -0.0324  1.0000  0.0184  -9.6541   0.0000   0.2086
 -13.500  -1.2854   0.02172   0.01670  -0.0302  1.0000  0.0195  -9.0738   0.0000   0.2105
 -13.000  -1.2492   0.02098   0.01586  -0.0278  1.0000  0.0206  -8.5087   0.0000   0.2126
 -12.500  -1.2237   0.01973   0.01450  -0.0236  1.0000  0.0216  -8.0369   0.0000   0.2164
 -12.000  -1.1975   0.01903   0.01377  -0.0188  1.0000  0.0225  -7.5553   0.0000   0.2208
 -11.500  -1.1703   0.01848   0.01315  -0.0139  1.0000  0.0236  -7.0811   0.0000   0.2253
 -11.000  -1.1444   0.01794   0.01252  -0.0085  1.0000  0.0244  -6.6310   0.0000   0.2304
 -10.500  -1.1247   0.01710   0.01158  -0.0020  1.0000  0.0251  -6.2336   0.0000   0.2367
 -10.000  -1.0846   0.01609   0.01054   0.0000  0.9989  0.0264  -5.7404   0.0000   0.2392
  -9.500  -1.0244   0.01541   0.00981  -0.0018  0.9968  0.0279  -5.2053   0.0000   0.2381
  -9.000  -0.9623   0.01471   0.00904  -0.0040  0.9951  0.0289  -4.7075   0.0000   0.2363
  -8.500  -0.9075   0.01352   0.00779  -0.0048  0.9915  0.0307  -4.2729   0.0000   0.2357
  -8.000  -0.8455   0.01277   0.00702  -0.0069  0.9891  0.0322  -3.8254   0.0000   0.2333
  -7.500  -0.7806   0.01214   0.00634  -0.0095  0.9875  0.0337  -3.4216   0.0000   0.2298
  -7.000  -0.7219   0.01132   0.00548  -0.0107  0.9834  0.0354  -3.0898   0.0000   0.2275
  -6.500  -0.6591   0.01066   0.00482  -0.0128  0.9804  0.0376  -2.7780   0.0000   0.2234
  -6.000  -0.6000   0.01017   0.00430  -0.0138  0.9753  0.0396  -2.5101   0.0000   0.2201
  -5.500  -0.5442   0.00959   0.00374  -0.0141  0.9692  0.0447  -2.2607   0.0000   0.2176
  -5.000  -0.4943   0.00906   0.00329  -0.0129  0.9601  0.0585  -2.0307   0.0000   0.2176
  -4.500  -0.4450   0.00855   0.00291  -0.0117  0.9499  0.0863  -1.8048   0.0000   0.2179
  -4.000  -0.3953   0.00806   0.00257  -0.0105  0.9395  0.1218  -1.5908   0.0000   0.2177
  -3.500  -0.3460   0.00751   0.00225  -0.0093  0.9280  0.1819  -1.3908   0.0000   0.2176
  -3.000  -0.2970   0.00690   0.00194  -0.0081  0.9159  0.2638  -1.1982   0.0000   0.2175
  -2.500  -0.2525   0.00595   0.00160  -0.0061  0.9027  0.4284  -1.0308   0.0000   0.2207
  -2.000  -0.2079   0.00513   0.00135  -0.0040  0.8888  0.5909  -0.8703   0.0000   0.2260
  -1.500  -0.1575   0.00477   0.00123  -0.0028  0.8749  0.6726  -0.7066   0.0000   0.2278
  -1.000  -0.1055   0.00457   0.00116  -0.0018  0.8586  0.7301  -0.5474   0.0000   0.2284
  -0.500  -0.0532   0.00446   0.00111  -0.0008  0.8340  0.7738  -0.4258   0.0000   0.2306
   0.000   0.0000   0.00443   0.00110  -0.0000  0.8046  0.8045  -0.3378   0.0000   0.4704
   0.500   0.0532   0.00446   0.00111   0.0008  0.7738  0.8340  -0.4258   0.0000   0.2306
   1.000   0.1055   0.00457   0.00116   0.0018  0.7301  0.8586  -0.5474   0.0000   0.2284
   1.500   0.1576   0.00477   0.00123   0.0028  0.6726  0.8749  -0.7066   0.0000   0.2278
   2.000   0.2079   0.00513   0.00135   0.0040  0.5909  0.8888  -0.8703   0.0000   0.2260
   2.500   0.2525   0.00595   0.00160   0.0061  0.4284  0.9027  -1.0308   0.0000   0.2207
   3.000   0.2970   0.00690   0.00194   0.0081  0.2638  0.9159  -1.1982   0.0000   0.2175
   3.500   0.3460   0.00751   0.00225   0.0093  0.1819  0.9280  -1.3908   0.0000   0.2176
   4.000   0.3953   0.00806   0.00257   0.0105  0.1218  0.9395  -1.5909   0.0000   0.2177
   4.500   0.4451   0.00855   0.00291   0.0117  0.0863  0.9499  -1.8049   0.0000   0.2179
   5.000   0.4943   0.00906   0.00329   0.0129  0.0585  0.9601  -2.0308   0.0000   0.2176
   5.500   0.5442   0.00959   0.00374   0.0141  0.0447  0.9693  -2.2609   0.0000   0.2176
   6.000   0.6000   0.01017   0.00430   0.0138  0.0396  0.9753  -2.5102   0.0000   0.2201
   6.500   0.6592   0.01066   0.00482   0.0127  0.0376  0.9804  -2.7782   0.0000   0.2234
   7.000   0.7220   0.01132   0.00548   0.0107  0.0354  0.9834  -3.0899   0.0000   0.2275
   7.500   0.7807   0.01214   0.00634   0.0095  0.0337  0.9875  -3.4219   0.0000   0.2298
   8.000   0.8456   0.01277   0.00701   0.0069  0.0322  0.9891  -3.8258   0.0000   0.2334
   8.500   0.9077   0.01352   0.00779   0.0048  0.0307  0.9915  -4.2733   0.0000   0.2357
   9.000   0.9624   0.01471   0.00904   0.0039  0.0289  0.9951  -4.7081   0.0000   0.2363
   9.500   1.0246   0.01541   0.00981   0.0018  0.0279  0.9968  -5.2060   0.0000   0.2381
  10.000   1.0848   0.01609   0.01053  -0.0001  0.0264  0.9989  -5.7413   0.0000   0.2393
  10.500   1.1246   0.01710   0.01157   0.0021  0.0251  1.0000  -6.2331   0.0000   0.2367
  11.000   1.1444   0.01794   0.01252   0.0085  0.0244  1.0000  -6.6306   0.0000   0.2304
  11.500   1.1703   0.01847   0.01315   0.0139  0.0236  1.0000  -7.0813   0.0000   0.2253
  12.000   1.1978   0.01903   0.01377   0.0187  0.0225  1.0000  -7.5570   0.0000   0.2208
  12.500   1.2242   0.01973   0.01450   0.0235  0.0216  1.0000  -8.0396   0.0000   0.2165
  13.000   1.2498   0.02098   0.01586   0.0277  0.0206  1.0000  -8.5127   0.0000   0.2127
  13.500   1.2861   0.02171   0.01669   0.0301  0.0195  1.0000  -9.0787   0.0000   0.2107
  14.000   1.3218   0.02255   0.01757   0.0322  0.0184  1.0000  -9.6596   0.0000   0.2088
  14.500   1.3473   0.02412   0.01924   0.0353  0.0174  1.0000  -10.1674   0.0000   0.2060
  15.000   1.3769   0.02549   0.02074   0.0377  0.0164  1.0000  -10.7165   0.0000   0.2040
  15.500   1.4031   0.02715   0.02248   0.0400  0.0155  1.0000  -11.2545   0.0000   0.2019
  16.000   1.4180   0.02978   0.02524   0.0428  0.0145  1.0000  -11.6987   0.0000   0.1992
  16.500   1.4355   0.03238   0.02800   0.0447  0.0138  1.0000  -12.1858   0.0000   0.1971
  17.000   1.4479   0.03561   0.03138   0.0463  0.0131  1.0000  -12.6408   0.0000   0.1952
  17.500   1.4491   0.04021   0.03614   0.0472  0.0125  1.0000  -12.9903   0.0000   0.1934
  18.000   1.4398   0.04647   0.04263   0.0469  0.0120  1.0000  -13.2242   0.0000   0.1922
  18.500   1.4275   0.05395   0.05036   0.0448  0.0117  1.0000  -13.4115   0.0000   0.1920
  19.000   1.4001   0.06461   0.06130   0.0400  0.0115  1.0000  -13.4107   0.0000   0.1934
  19.500   1.3421   0.08176   0.07880   0.0307  0.0114  1.0000  -13.0004   0.0000   0.1976
  20.000   1.2098   0.11371   0.11123   0.0132  0.0119  1.0000  -11.5288   0.0000   0.2083
  20.500   1.0973   0.14366   0.14148  -0.0039  0.0122  1.0000  -10.0711   0.0000   0.2217
  21.000   1.0280   0.16765   0.16572  -0.0186  0.0121  1.0000  -8.9712   0.0000   0.2354
  23.500   0.5688   0.23473   0.23329  -0.0298  0.0082  1.0000  -1.6302   0.0000   0.2816
  24.000   0.5697   0.24295   0.24152  -0.0328  0.0074  1.0000  -1.3234   0.0000   0.2870
  24.500   0.5767   0.24784   0.24642  -0.0354  0.0069  1.0000  -1.3563   0.0000   0.2902
  25.000   0.5843   0.25216   0.25076  -0.0380  0.0066  1.0000  -1.4375   0.0000   0.2930
  25.500   0.5922   0.25634   0.25495  -0.0404  0.0065  1.0000  -1.5467   0.0000   0.2950
  26.000   0.5942   0.26468   0.26330  -0.0434  0.0057  1.0000  -1.2441   0.0000   0.3001
  26.500   0.6007   0.26963   0.26827  -0.0461  0.0054  1.0000  -1.2663   0.0000   0.3030
  27.000   0.6075   0.27409   0.27274  -0.0488  0.0052  1.0000  -1.3324   0.0000   0.3056
  27.500   0.6139   0.27869   0.27735  -0.0514  0.0051  1.0000  -1.4094   0.0000   0.3079
  28.000   0.6171   0.28680   0.28547  -0.0542  0.0046  1.0000  -1.1699   0.0000   0.3120
  28.500   0.6229   0.29197   0.29065  -0.0570  0.0042  1.0000  -1.1832   0.0000   0.3148
  29.000   0.6286   0.29671   0.29541  -0.0598  0.0041  1.0000  -1.2292   0.0000   0.3173
  29.500   0.6344   0.30101   0.29972  -0.0626  0.0040  1.0000  -1.3161   0.0000   0.3196
  30.000   0.6379   0.30841   0.30714  -0.0653  0.0039  1.0000  -1.1501   0.0000   0.3229
  30.500   0.6426   0.31451   0.31325  -0.0680  0.0034  1.0000  -1.0984   0.0000   0.3256
  31.000   0.6473   0.31964   0.31839  -0.0708  0.0032  1.0000  -1.1154   0.0000   0.3281
  31.500   0.6520   0.32435   0.32312  -0.0737  0.0030  1.0000  -1.1620   0.0000   0.3305
  32.000   0.6563   0.32862   0.32741  -0.0766  0.0029  1.0000  -1.2434   0.0000   0.3326
  32.500   0.6595   0.33600   0.33479  -0.0793  0.0029  1.0000  -1.0940   0.0000   0.3356
  33.000   0.6632   0.34209   0.34090  -0.0820  0.0026  1.0000  -1.0460   0.0000   0.3380
  33.500   0.6667   0.34727   0.34610  -0.0848  0.0023  1.0000  -1.0534   0.0000   0.3403
  34.000   0.6701   0.35207   0.35091  -0.0878  0.0022  1.0000  -1.0847   0.0000   0.3426
  34.500   0.6732   0.35639   0.35524  -0.0907  0.0021  1.0000  -1.1442   0.0000   0.3449
  35.000   0.6756   0.36246   0.36133  -0.0935  0.0021  1.0000  -1.0711   0.0000   0.3473
  35.500   0.6782   0.36901   0.36789  -0.0961  0.0019  1.0000  -0.9834   0.0000   0.3496
  36.000   0.6806   0.37428   0.37318  -0.0989  0.0017  1.0000  -0.9745   0.0000   0.3518
  36.500   0.6827   0.37914   0.37805  -0.1018  0.0015  1.0000  -0.9871   0.0000   0.3540
  37.000   0.6846   0.38359   0.38252  -0.1047  0.0015  1.0000  -1.0185   0.0000   0.3562
  37.500   0.6859   0.38752   0.38647  -0.1077  0.0014  1.0000  -1.0859   0.0000   0.3583
  38.000   0.6873   0.39410   0.39306  -0.1103  0.0014  1.0000  -0.9991   0.0000   0.3605
  38.500   0.6885   0.39992   0.39890  -0.1129  0.0012  1.0000  -0.9424   0.0000   0.3626
  39.000   0.6894   0.40476   0.40376  -0.1157  0.0011  1.0000  -0.9328   0.0000   0.3647
  39.500   0.6901   0.40921   0.40822  -0.1186  0.0009  1.0000  -0.9469   0.0000   0.3668
  40.000   0.6904   0.41320   0.41223  -0.1215  0.0009  1.0000  -0.9859   0.0000   0.3689


