xflr5 v6.33

 Calculated polar for: NACA 0012 v1

 1 1 Reynolds number fixed          Mach number fixed         

 xtrf =   1.000 (top)        1.000 (bottom)
 Mach =   0.000     Re =     0.200 e 6     Ncrit =   9.000

  alpha     CL        CD       CDp       Cm    Top Xtr Bot Xtr   Cpmin    Chinge    XCp    
 ------- -------- --------- --------- -------- ------- ------- -------- --------- ---------
 -30.000  -1.1560   0.33788   0.33415   0.1710  1.0000  0.0163  -2.5050   0.0000   0.3526
 -29.000  -1.1290   0.32893   0.32516   0.1607  1.0000  0.0171  -2.3491   0.0000   0.3498
 -28.500  -1.1149   0.32448   0.32069   0.1556  1.0000  0.0180  -2.2730   0.0000   0.3484
 -27.500  -1.0861   0.31472   0.31088   0.1451  1.0000  0.0194  -2.1164   0.0000   0.3450
 -27.000  -1.0713   0.31005   0.30619   0.1402  1.0000  0.0204  -2.0429   0.0000   0.3435
 -26.500  -1.0564   0.30440   0.30053   0.1340  1.0000  0.0214  -2.1097   0.0000   0.3406
 -26.000  -1.0412   0.29969   0.29580   0.1298  1.0000  0.0219  -2.0298   0.0000   0.3398
 -25.500  -1.0256   0.29494   0.29103   0.1251  1.0000  0.0231  -1.9972   0.0000   0.3383
 -25.000  -1.0107   0.28902   0.28510   0.1190  1.0000  0.0242  -2.0952   0.0000   0.3349
 -24.500  -0.9943   0.28438   0.28044   0.1152  1.0000  0.0250  -1.9938   0.0000   0.3343
 -24.000  -0.9783   0.27909   0.27513   0.1103  1.0000  0.0264  -1.9852   0.0000   0.3322
 -23.500  -0.9629   0.27325   0.26929   0.1050  1.0000  0.0272  -2.0143   0.0000   0.3295
 -23.000  -0.9461   0.26838   0.26439   0.1009  1.0000  0.0287  -1.9534   0.0000   0.3282
 -22.500  -0.9315   0.26210   0.25811   0.0950  1.0000  0.0301  -2.0440   0.0000   0.3243
 -22.000  -0.9138   0.25718   0.25317   0.0915  1.0000  0.0313  -1.9494   0.0000   0.3236
 -21.500  -0.9014   0.25073   0.24673   0.0845  1.0000  0.0331  -2.0887   0.0000   0.3179
 -21.000  -0.8814   0.24560   0.24158   0.0822  1.0000  0.0342  -1.9324   0.0000   0.3185
 -14.000  -0.9644   0.07944   0.07511  -0.0264  1.0000  0.0404  -5.2741   0.0000   0.2052
 -13.500  -1.0495   0.06193   0.05691  -0.0369  1.0000  0.0394  -5.7842   0.0000   0.1986
 -13.000  -1.0962   0.05310   0.04752  -0.0366  1.0000  0.0394  -5.9468   0.0000   0.2014
 -12.500  -1.1358   0.04677   0.04049  -0.0302  1.0000  0.0397  -6.0457   0.0000   0.2090
 -12.000  -1.1146   0.04273   0.03631  -0.0279  1.0000  0.0411  -5.7686   0.0000   0.2113
 -11.500  -1.1081   0.03819   0.03113  -0.0233  1.0000  0.0429  -5.6324   0.0000   0.2159
 -11.000  -1.0793   0.03479   0.02746  -0.0208  1.0000  0.0452  -5.3519   0.0000   0.2183
 -10.500  -1.0494   0.03132   0.02352  -0.0179  1.0000  0.0480  -5.0958   0.0000   0.2211
 -10.000  -1.0123   0.02868   0.02061  -0.0157  1.0000  0.0516  -4.7813   0.0000   0.2232
  -9.500  -0.9716   0.02631   0.01810  -0.0139  1.0000  0.0559  -4.4648   0.0000   0.2251
  -9.000  -0.9302   0.02426   0.01600  -0.0120  1.0000  0.0612  -4.1490   0.0000   0.2271
  -8.500  -0.8893   0.02240   0.01399  -0.0097  1.0000  0.0681  -3.8452   0.0000   0.2296
  -8.000  -0.8491   0.02070   0.01235  -0.0074  1.0000  0.0764  -3.5507   0.0000   0.2324
  -7.500  -0.8101   0.01915   0.01083  -0.0046  1.0000  0.0874  -3.2720   0.0000   0.2358
  -7.000  -0.7723   0.01774   0.00950  -0.0016  1.0000  0.1024  -3.0033   0.0000   0.2399
  -6.500  -0.7349   0.01640   0.00832   0.0014  1.0000  0.1240  -2.7501   0.0000   0.2445
  -6.000  -0.6973   0.01515   0.00728   0.0045  1.0000  0.1577  -2.5037   0.0000   0.2494
  -5.500  -0.6591   0.01401   0.00643   0.0074  1.0000  0.2087  -2.2678   0.0000   0.2546
  -5.000  -0.6195   0.01308   0.00581   0.0100  1.0000  0.2750  -2.0384   0.0000   0.2600
  -4.500  -0.5785   0.01234   0.00537   0.0124  1.0000  0.3460  -1.8175   0.0000   0.2657
  -4.000  -0.5359   0.01177   0.00508   0.0146  1.0000  0.4167  -1.6093   0.0000   0.2718
  -3.500  -0.4918   0.01135   0.00492   0.0164  1.0000  0.4865  -1.4156   0.0000   0.2785
  -3.000  -0.4466   0.01105   0.00489   0.0181  1.0000  0.5552  -1.2378   0.0000   0.2860
  -2.500  -0.3946   0.01086   0.00499   0.0184  0.9980  0.6255  -1.0668   0.0000   0.2924
  -2.000  -0.3081   0.01068   0.00510   0.0121  0.9848  0.7026  -0.8706   0.0000   0.2853
  -1.500  -0.2248   0.01049   0.00516   0.0071  0.9691  0.7699  -0.7120   0.0000   0.2774
  -1.000  -0.1430   0.01034   0.00519   0.0028  0.9524  0.8260  -0.5849   0.0000   0.2657
  -0.500  -0.0679   0.01023   0.00519   0.0005  0.9322  0.8705  -0.4877   0.0000   0.2534
   0.000   0.0000   0.01019   0.00519  -0.0000  0.9052  0.9052  -0.4121   0.0000   0.4569
   0.500   0.0679   0.01023   0.00519  -0.0005  0.8705  0.9322  -0.4877   0.0000   0.2534
   1.000   0.1430   0.01034   0.00519  -0.0028  0.8260  0.9525  -0.5849   0.0000   0.2657
   2.000   0.3081   0.01068   0.00510  -0.0121  0.7026  0.9848  -0.8706   0.0000   0.2853
   2.500   0.3946   0.01086   0.00499  -0.0184  0.6255  0.9980  -1.0668   0.0000   0.2924
   3.000   0.4465   0.01105   0.00489  -0.0180  0.5553  1.0000  -1.2377   0.0000   0.2860
   3.500   0.4917   0.01135   0.00492  -0.0164  0.4865  1.0000  -1.4154   0.0000   0.2785
   4.000   0.5359   0.01177   0.00508  -0.0145  0.4167  1.0000  -1.6092   0.0000   0.2718
   4.500   0.5784   0.01234   0.00537  -0.0123  0.3460  1.0000  -1.8173   0.0000   0.2657
   5.000   0.6195   0.01308   0.00580  -0.0098  0.2751  1.0000  -2.0382   0.0000   0.2600
   5.500   0.6591   0.01401   0.00643  -0.0072  0.2088  1.0000  -2.2677   0.0000   0.2546
   6.000   0.6972   0.01515   0.00727  -0.0043  0.1577  1.0000  -2.5036   0.0000   0.2494
   6.500   0.7349   0.01640   0.00832  -0.0012  0.1240  1.0000  -2.7500   0.0000   0.2445
   7.000   0.7723   0.01774   0.00950   0.0019  0.1024  1.0000  -3.0032   0.0000   0.2399
   7.500   0.8101   0.01915   0.01083   0.0049  0.0874  1.0000  -3.2720   0.0000   0.2358
   8.000   0.8491   0.02070   0.01235   0.0076  0.0764  1.0000  -3.5508   0.0000   0.2324
   8.500   0.8893   0.02240   0.01399   0.0100  0.0681  1.0000  -3.8453   0.0000   0.2296
   9.000   0.9302   0.02426   0.01600   0.0123  0.0612  1.0000  -4.1492   0.0000   0.2271
   9.500   0.9716   0.02631   0.01810   0.0142  0.0559  1.0000  -4.4650   0.0000   0.2251
  10.000   1.0124   0.02868   0.02061   0.0161  0.0516  1.0000  -4.7817   0.0000   0.2233
  10.500   1.0496   0.03132   0.02352   0.0184  0.0479  1.0000  -5.0963   0.0000   0.2211
  11.000   1.0794   0.03479   0.02747   0.0213  0.0452  1.0000  -5.3524   0.0000   0.2183
  11.500   1.1082   0.03820   0.03114   0.0238  0.0429  1.0000  -5.6326   0.0000   0.2159
  12.000   1.1149   0.04273   0.03632   0.0283  0.0411  1.0000  -5.7696   0.0000   0.2113
  12.500   1.1359   0.04679   0.04050   0.0307  0.0397  1.0000  -6.0458   0.0000   0.2090
  13.000   1.0964   0.05313   0.04755   0.0370  0.0394  1.0000  -5.9467   0.0000   0.2015
  13.500   1.0497   0.06198   0.05697   0.0373  0.0394  1.0000  -5.7837   0.0000   0.1987
  14.000   1.0002   0.07407   0.06950   0.0314  0.0396  1.0000  -5.5599   0.0000   0.2018
  20.500   0.8702   0.23952   0.23551  -0.0759  0.0364  1.0000  -2.0595   0.0000   0.3132
  21.000   0.8827   0.24615   0.24213  -0.0825  0.0342  1.0000  -1.9351   0.0000   0.3187
  21.500   0.9024   0.25131   0.24730  -0.0849  0.0331  1.0000  -2.0814   0.0000   0.3183
  22.000   0.9151   0.25780   0.25379  -0.0918  0.0312  1.0000  -1.9517   0.0000   0.3238
  22.500   0.9329   0.26281   0.25882  -0.0952  0.0301  1.0000  -2.0485   0.0000   0.3245
  23.000   0.9476   0.26916   0.26518  -0.1012  0.0286  1.0000  -1.9553   0.0000   0.3284
  23.500   0.9644   0.27407   0.27011  -0.1053  0.0272  1.0000  -2.0183   0.0000   0.3296
  24.000   0.9799   0.28001   0.27605  -0.1106  0.0264  1.0000  -1.9861   0.0000   0.3324
  24.500   0.9959   0.28538   0.28144  -0.1156  0.0250  1.0000  -1.9968   0.0000   0.3345
  26.000   1.0429   0.30094   0.29705  -0.1302  0.0219  1.0000  -2.0334   0.0000   0.3399
  26.500   1.0582   0.30581   0.30194  -0.1344  0.0213  1.0000  -2.1078   0.0000   0.3408
  27.000   1.0732   0.31149   0.30763  -0.1406  0.0204  1.0000  -2.0292   0.0000   0.3437
  27.500   1.0881   0.31622   0.31239  -0.1456  0.0194  1.0000  -2.0807   0.0000   0.3452
  28.000   1.1026   0.32065   0.31685  -0.1495  0.0188  1.0000  -2.1828   0.0000   0.3455
  28.500   0.6686   0.30948   0.30635  -0.0762  0.0193  1.0000  -1.0772   0.0000   0.3377
  29.000   0.6734   0.31514   0.31203  -0.0787  0.0187  1.0000  -1.0767   0.0000   0.3397
  29.500   0.6775   0.32115   0.31808  -0.0814  0.0179  1.0000  -1.0401   0.0000   0.3423
  30.000   0.6820   0.32669   0.32364  -0.0840  0.0170  1.0000  -1.0452   0.0000   0.3443
  30.500   0.6868   0.33172   0.32872  -0.0863  0.0165  1.0000  -1.0915   0.0000   0.3457
  31.000   0.6901   0.33820   0.33522  -0.0892  0.0159  1.0000  -1.0164   0.0000   0.3485
  31.500   0.6939   0.34379   0.34085  -0.0919  0.0150  1.0000  -1.0022   0.0000   0.3506
  32.000   0.6978   0.34902   0.34612  -0.0944  0.0144  1.0000  -1.0280   0.0000   0.3523
  32.500   0.7010   0.35491   0.35204  -0.0971  0.0141  1.0000  -1.0182   0.0000   0.3544
  33.000   0.7041   0.36086   0.35802  -0.0998  0.0135  1.0000  -0.9858   0.0000   0.3566
  33.500   0.7072   0.36636   0.36356  -0.1024  0.0127  1.0000  -0.9833   0.0000   0.3584
  34.000   0.7100   0.37142   0.36866  -0.1050  0.0122  1.0000  -1.0079   0.0000   0.3601
  34.500   0.7124   0.37751   0.37478  -0.1077  0.0120  1.0000  -0.9695   0.0000   0.3622
  35.000   0.7147   0.38328   0.38059  -0.1103  0.0115  1.0000  -0.9520   0.0000   0.3642
  35.500   0.7169   0.38874   0.38608  -0.1130  0.0109  1.0000  -0.9504   0.0000   0.3661
  36.000   0.7188   0.39375   0.39113  -0.1156  0.0104  1.0000  -0.9666   0.0000   0.3678
  36.500   0.7203   0.39939   0.39680  -0.1183  0.0102  1.0000  -0.9520   0.0000   0.3697
  37.000   0.7217   0.40507   0.40252  -0.1209  0.0098  1.0000  -0.9160   0.0000   0.3716
  37.500   0.7230   0.41047   0.40796  -0.1235  0.0093  1.0000  -0.9127   0.0000   0.3734
  38.000   0.7240   0.41555   0.41308  -0.1262  0.0089  1.0000  -0.9184   0.0000   0.3752


