xflr5 v6.33

 Calculated polar for: NACA 0012 v1

 1 1 Reynolds number fixed          Mach number fixed         

 xtrf =   1.000 (top)        1.000 (bottom)
 Mach =   0.000     Re =     2.300 e 6     Ncrit =   9.000

  alpha     CL        CD       CDp       Cm    Top Xtr Bot Xtr   Cpmin    Chinge    XCp    
 ------- -------- --------- --------- -------- ------- ------- -------- --------- ---------
 -24.500  -1.1156   0.22912   0.22775   0.0900  1.0000  0.0080  -8.3235   0.0000   0.2908
 -24.000  -1.1301   0.21598   0.21447   0.0794  1.0000  0.0083  -8.8580   0.0000   0.2810
 -23.500  -1.1389   0.20496   0.20334   0.0704  1.0000  0.0085  -9.1551   0.0000   0.2735
 -23.000  -1.1445   0.19508   0.19341   0.0623  1.0000  0.0089  -9.3264   0.0000   0.2671
 -22.500  -1.1578   0.18347   0.18172   0.0532  1.0000  0.0091  -9.5933   0.0000   0.2597
 -22.000  -1.1799   0.17017   0.16829   0.0432  1.0000  0.0093  -9.9507   0.0000   0.2512
 -21.500  -1.2162   0.15430   0.15226   0.0318  1.0000  0.0094  -10.4517   0.0000   0.2417
 -21.000  -1.2764   0.13441   0.13215   0.0184  1.0000  0.0094  -11.1796   0.0000   0.2310
 -20.500  -1.3651   0.11049   0.10791   0.0040  1.0000  0.0093  -12.1181   0.0000   0.2205
 -20.000  -1.4574   0.08748   0.08454  -0.0085  1.0000  0.0092  -12.9466   0.0000   0.2131
 -19.500  -1.5256   0.06955   0.06631  -0.0176  1.0000  0.0092  -13.4188   0.0000   0.2087
 -19.000  -1.5679   0.05644   0.05293  -0.0240  1.0000  0.0093  -13.5741   0.0000   0.2063
 -18.500  -1.5904   0.04685   0.04313  -0.0282  1.0000  0.0094  -13.5047   0.0000   0.2053
 -18.000  -1.5986   0.03977   0.03586  -0.0305  1.0000  0.0095  -13.2828   0.0000   0.2052
 -17.500  -1.5974   0.03445   0.03037  -0.0313  1.0000  0.0097  -12.9645   0.0000   0.2059
 -17.000  -1.5892   0.03044   0.02620  -0.0308  1.0000  0.0100  -12.5896   0.0000   0.2073
 -16.500  -1.5750   0.02742   0.02305  -0.0293  1.0000  0.0101  -12.1715   0.0000   0.2092
 -16.000  -1.5616   0.02473   0.02021  -0.0266  1.0000  0.0104  -11.7641   0.0000   0.2117
 -15.500  -1.5458   0.02251   0.01787  -0.0231  1.0000  0.0109  -11.3386   0.0000   0.2148
 -15.000  -1.5224   0.02097   0.01625  -0.0195  1.0000  0.0113  -10.8576   0.0000   0.2179
 -14.500  -1.4943   0.01978   0.01497  -0.0159  1.0000  0.0117  -10.3508   0.0000   0.2210
 -14.000  -1.4571   0.01876   0.01387  -0.0137  1.0000  0.0121  -9.7972   0.0000   0.2231
 -13.500  -1.4210   0.01747   0.01251  -0.0113  1.0000  0.0128  -9.2726   0.0000   0.2254
 -13.000  -1.3795   0.01650   0.01149  -0.0096  1.0000  0.0135  -8.7195   0.0000   0.2273
 -12.500  -1.3352   0.01569   0.01062  -0.0081  1.0000  0.0141  -8.1643   0.0000   0.2289
 -12.000  -1.2917   0.01474   0.00963  -0.0065  1.0000  0.0151  -7.6531   0.0000   0.2308
 -11.500  -1.2455   0.01402   0.00886  -0.0052  1.0000  0.0161  -7.1391   0.0000   0.2324
 -11.000  -1.1996   0.01327   0.00808  -0.0038  1.0000  0.0173  -6.6442   0.0000   0.2341
 -10.500  -1.1535   0.01263   0.00742  -0.0023  1.0000  0.0185  -6.1599   0.0000   0.2360
 -10.000  -1.1091   0.01200   0.00677  -0.0003  1.0000  0.0200  -5.6999   0.0000   0.2384
  -9.500  -1.0649   0.01147   0.00623   0.0019  1.0000  0.0217  -5.2663   0.0000   0.2411
  -9.000  -1.0224   0.01094   0.00570   0.0044  1.0000  0.0238  -4.8608   0.0000   0.2442
  -8.000  -0.9067   0.00988   0.00467   0.0028  0.9975  0.0304  -3.9802   0.0000   0.2442
  -7.500  -0.8412   0.00936   0.00418   0.0004  0.9957  0.0355  -3.5565   0.0000   0.2421
  -7.000  -0.7760   0.00886   0.00374  -0.0019  0.9932  0.0424  -3.1538   0.0000   0.2397
  -6.500  -0.7114   0.00838   0.00333  -0.0039  0.9896  0.0517  -2.7874   0.0000   0.2370
  -6.000  -0.6516   0.00794   0.00296  -0.0049  0.9819  0.0642  -2.4573   0.0000   0.2354
  -5.500  -0.5966   0.00752   0.00262  -0.0047  0.9695  0.0810  -2.1635   0.0000   0.2354
  -5.000  -0.5443   0.00712   0.00230  -0.0038  0.9518  0.1030  -1.9015   0.0000   0.2367
  -4.500  -0.4920   0.00674   0.00201  -0.0029  0.9299  0.1322  -1.6596   0.0000   0.2380
  -4.000  -0.4389   0.00639   0.00174  -0.0023  0.9028  0.1686  -1.4381   0.0000   0.2391
  -3.500  -0.3853   0.00607   0.00150  -0.0017  0.8708  0.2111  -1.2378   0.0000   0.2401
  -3.000  -0.3312   0.00581   0.00130  -0.0012  0.8338  0.2576  -1.0597   0.0000   0.2410
  -2.500  -0.2767   0.00559   0.00114  -0.0009  0.7922  0.3065  -0.9028   0.0000   0.2418
  -2.000  -0.2218   0.00542   0.00101  -0.0006  0.7476  0.3564  -0.7678   0.0000   0.2424
  -1.500  -0.1667   0.00530   0.00091  -0.0004  0.7009  0.4064  -0.6534   0.0000   0.2429
  -1.000  -0.1113   0.00521   0.00085  -0.0002  0.6530  0.4566  -0.5582   0.0000   0.2433
  -0.500  -0.0557   0.00516   0.00081  -0.0001  0.6044  0.5063  -0.4794   0.0000   0.2435
   0.000  -0.0000   0.00515   0.00080  -0.0000  0.5555  0.5556  -0.4132   0.0000   0.4522
   0.500   0.0557   0.00516   0.00081   0.0001  0.5063  0.6044  -0.4794   0.0000   0.2435
   1.000   0.1113   0.00521   0.00085   0.0002  0.4566  0.6530  -0.5582   0.0000   0.2433
   1.500   0.1667   0.00530   0.00091   0.0004  0.4064  0.7009  -0.6535   0.0000   0.2429
   2.000   0.2218   0.00542   0.00101   0.0006  0.3564  0.7476  -0.7678   0.0000   0.2424
   2.500   0.2767   0.00559   0.00114   0.0009  0.3065  0.7922  -0.9028   0.0000   0.2418
   3.500   0.3853   0.00607   0.00150   0.0018  0.2111  0.8708  -1.2378   0.0000   0.2401
   4.000   0.4389   0.00639   0.00174   0.0023  0.1686  0.9028  -1.4381   0.0000   0.2391
   4.500   0.4920   0.00674   0.00201   0.0030  0.1322  0.9299  -1.6597   0.0000   0.2380
   5.000   0.5444   0.00712   0.00230   0.0039  0.1030  0.9518  -1.9016   0.0000   0.2367
   5.500   0.5966   0.00752   0.00262   0.0048  0.0810  0.9695  -2.1636   0.0000   0.2355
   6.000   0.6516   0.00794   0.00296   0.0050  0.0642  0.9819  -2.4574   0.0000   0.2354
   6.500   0.7114   0.00838   0.00333   0.0041  0.0517  0.9897  -2.7875   0.0000   0.2370
   7.000   0.7760   0.00886   0.00374   0.0021  0.0424  0.9932  -3.1539   0.0000   0.2397
   7.500   0.8412   0.00936   0.00418  -0.0002  0.0355  0.9957  -3.5566   0.0000   0.2421
   8.000   0.9067   0.00988   0.00467  -0.0025  0.0304  0.9975  -3.9804   0.0000   0.2442
   8.500   0.9712   0.01041   0.00518  -0.0047  0.0265  0.9994  -4.4346   0.0000   0.2457
   9.000   1.0223   0.01094   0.00570  -0.0040  0.0238  1.0000  -4.8604   0.0000   0.2442
   9.500   1.0649   0.01147   0.00622  -0.0014  0.0217  1.0000  -5.2660   0.0000   0.2411
  10.000   1.1091   0.01199   0.00677   0.0008  0.0200  1.0000  -5.6997   0.0000   0.2384
  10.500   1.1535   0.01263   0.00742   0.0028  0.0185  1.0000  -6.1599   0.0000   0.2360
  11.000   1.1997   0.01327   0.00808   0.0043  0.0173  1.0000  -6.6444   0.0000   0.2342
  11.500   1.2456   0.01402   0.00886   0.0058  0.0161  1.0000  -7.1396   0.0000   0.2324
  12.000   1.2918   0.01474   0.00963   0.0072  0.0151  1.0000  -7.6537   0.0000   0.2308
  12.500   1.3354   0.01569   0.01062   0.0088  0.0141  1.0000  -8.1652   0.0000   0.2290
  13.000   1.3797   0.01650   0.01149   0.0103  0.0135  1.0000  -8.7207   0.0000   0.2273
  13.500   1.4213   0.01747   0.01251   0.0121  0.0128  1.0000  -9.2739   0.0000   0.2255
  14.000   1.4574   0.01876   0.01387   0.0145  0.0121  1.0000  -9.7990   0.0000   0.2232
  14.500   1.4947   0.01978   0.01497   0.0168  0.0117  1.0000  -10.3532   0.0000   0.2210
  15.000   1.5229   0.02097   0.01624   0.0204  0.0113  1.0000  -10.8610   0.0000   0.2180
  15.500   1.5464   0.02251   0.01787   0.0240  0.0109  1.0000  -11.3427   0.0000   0.2149
  16.000   1.5623   0.02473   0.02021   0.0276  0.0104  1.0000  -11.7684   0.0000   0.2118
  16.500   1.5760   0.02741   0.02303   0.0302  0.0101  1.0000  -12.1778   0.0000   0.2093
  17.000   1.5903   0.03042   0.02618   0.0318  0.0100  1.0000  -12.5971   0.0000   0.2074
  17.500   1.5986   0.03442   0.03034   0.0323  0.0097  1.0000  -12.9736   0.0000   0.2060
  18.000   1.6000   0.03973   0.03581   0.0316  0.0095  1.0000  -13.2937   0.0000   0.2053
  18.500   1.5920   0.04679   0.04306   0.0292  0.0094  1.0000  -13.5177   0.0000   0.2054
  19.000   1.5698   0.05635   0.05285   0.0251  0.0093  1.0000  -13.5892   0.0000   0.2064
  19.500   1.5276   0.06945   0.06620   0.0186  0.0092  1.0000  -13.4357   0.0000   0.2088
  20.000   1.4596   0.08736   0.08442   0.0094  0.0092  1.0000  -12.9653   0.0000   0.2132
  20.500   1.3672   0.11041   0.10782  -0.0031  0.0093  1.0000  -12.1360   0.0000   0.2207
  21.000   1.2780   0.13445   0.13218  -0.0177  0.0094  1.0000  -11.1917   0.0000   0.2311
  21.500   1.2175   0.15439   0.15235  -0.0312  0.0094  1.0000  -10.4602   0.0000   0.2419
  22.000   1.1811   0.17031   0.16843  -0.0427  0.0093  1.0000  -9.9578   0.0000   0.2514
  22.500   1.1590   0.18363   0.18187  -0.0528  0.0091  1.0000  -9.5995   0.0000   0.2598
  23.000   1.1457   0.19527   0.19360  -0.0620  0.0089  1.0000  -9.3328   0.0000   0.2673
  23.500   1.1401   0.20519   0.20357  -0.0701  0.0085  1.0000  -9.1626   0.0000   0.2736
  24.000   1.1313   0.21640   0.21489  -0.0792  0.0083  1.0000  -8.8619   0.0000   0.2812
  24.500   1.1167   0.22972   0.22835  -0.0898  0.0080  1.0000  -8.3216   0.0000   0.2911


