xflr5 v6.33

 Calculated polar for: NACA 0012 v1

 1 1 Reynolds number fixed          Mach number fixed         

 xtrf =   1.000 (top)        1.000 (bottom)
 Mach =   0.000     Re =     2.900 e 6     Ncrit =   9.000

  alpha     CL        CD       CDp       Cm    Top Xtr Bot Xtr   Cpmin    Chinge    XCp    
 ------- -------- --------- --------- -------- ------- ------- -------- --------- ---------
 -25.500  -1.1354   0.24159   0.24034   0.1015  1.0000  0.0069  -8.5074   0.0000   0.2970
 -25.000  -1.1346   0.23285   0.23155   0.0938  1.0000  0.0073  -8.7003   0.0000   0.2913
 -24.500  -1.1364   0.22342   0.22206   0.0857  1.0000  0.0076  -8.9091   0.0000   0.2850
 -24.000  -1.1414   0.21329   0.21187   0.0773  1.0000  0.0079  -9.1472   0.0000   0.2783
 -23.500  -1.1495   0.20256   0.20105   0.0685  1.0000  0.0081  -9.4023   0.0000   0.2711
 -23.000  -1.1620   0.19107   0.18945   0.0593  1.0000  0.0083  -9.6855   0.0000   0.2635
 -22.500  -1.1813   0.17826   0.17652   0.0494  1.0000  0.0084  -10.0320   0.0000   0.2552
 -22.000  -1.2146   0.16284   0.16094   0.0379  1.0000  0.0085  -10.5302   0.0000   0.2456
 -21.500  -1.2780   0.14199   0.13987   0.0233  1.0000  0.0085  -11.3638   0.0000   0.2335
 -21.000  -1.3840   0.11466   0.11218   0.0061  1.0000  0.0084  -12.5742   0.0000   0.2207
 -20.500  -1.4911   0.08918   0.08633  -0.0080  1.0000  0.0083  -13.5924   0.0000   0.2123
 -20.000  -1.5639   0.07066   0.06750  -0.0174  1.0000  0.0083  -14.1182   0.0000   0.2079
 -19.500  -1.6067   0.05756   0.05415  -0.0238  1.0000  0.0083  -14.2777   0.0000   0.2057
 -19.000  -1.6293   0.04801   0.04439  -0.0279  1.0000  0.0084  -14.2047   0.0000   0.2047
 -18.500  -1.6374   0.04093   0.03712  -0.0303  1.0000  0.0085  -13.9746   0.0000   0.2046
 -18.000  -1.6465   0.03443   0.03042  -0.0314  1.0000  0.0087  -13.7467   0.0000   0.2053
 -17.500  -1.6445   0.02985   0.02569  -0.0308  1.0000  0.0090  -13.4060   0.0000   0.2069
 -17.000  -1.6332   0.02666   0.02237  -0.0290  1.0000  0.0093  -12.9852   0.0000   0.2089
 -16.500  -1.6164   0.02426   0.01987  -0.0266  1.0000  0.0096  -12.5306   0.0000   0.2113
 -16.000  -1.5953   0.02241   0.01792  -0.0236  1.0000  0.0098  -12.0469   0.0000   0.2140
 -15.500  -1.5707   0.02094   0.01636  -0.0203  1.0000  0.0101  -11.5429   0.0000   0.2169
 -15.000  -1.5442   0.01970   0.01503  -0.0166  1.0000  0.0103  -11.0341   0.0000   0.2200
 -14.500  -1.5137   0.01835   0.01360  -0.0134  1.0000  0.0109  -10.5147   0.0000   0.2228
 -14.000  -1.4749   0.01733   0.01253  -0.0114  1.0000  0.0115  -9.9453   0.0000   0.2248
 -13.500  -1.4327   0.01646   0.01160  -0.0097  1.0000  0.0120  -9.3685   0.0000   0.2266
 -13.000  -1.3902   0.01551   0.01060  -0.0081  1.0000  0.0126  -8.8089   0.0000   0.2284
 -12.500  -1.3459   0.01466   0.00972  -0.0066  1.0000  0.0134  -8.2505   0.0000   0.2301
 -12.000  -1.2994   0.01396   0.00898  -0.0054  1.0000  0.0141  -7.7129   0.0000   0.2316
 -11.500  -1.2533   0.01319   0.00818  -0.0041  1.0000  0.0151  -7.2002   0.0000   0.2333
 -11.000  -1.2063   0.01257   0.00754  -0.0027  1.0000  0.0162  -6.6926   0.0000   0.2350
 -10.500  -1.1607   0.01194   0.00689  -0.0011  1.0000  0.0174  -6.2095   0.0000   0.2371
 -10.000  -1.1158   0.01141   0.00635   0.0009  1.0000  0.0187  -5.7421   0.0000   0.2395
  -9.500  -1.0728   0.01086   0.00581   0.0033  1.0000  0.0204  -5.3109   0.0000   0.2424
  -9.000  -1.0237   0.01036   0.00531   0.0044  0.9996  0.0225  -4.8758   0.0000   0.2442
  -8.500  -0.9603   0.00983   0.00480   0.0024  0.9979  0.0253  -4.4003   0.0000   0.2431
  -8.000  -0.8959   0.00933   0.00433   0.0003  0.9963  0.0290  -3.9486   0.0000   0.2414
  -7.500  -0.8316   0.00886   0.00389  -0.0018  0.9940  0.0335  -3.5290   0.0000   0.2394
  -7.000  -0.7682   0.00840   0.00348  -0.0036  0.9906  0.0398  -3.1335   0.0000   0.2373
  -6.500  -0.7089   0.00798   0.00311  -0.0045  0.9834  0.0479  -2.7829   0.0000   0.2362
  -6.000  -0.6545   0.00759   0.00278  -0.0041  0.9708  0.0586  -2.4669   0.0000   0.2366
  -5.500  -0.6021   0.00723   0.00247  -0.0033  0.9538  0.0728  -2.1790   0.0000   0.2379
  -5.000  -0.5494   0.00688   0.00217  -0.0025  0.9325  0.0920  -1.9140   0.0000   0.2391
  -4.500  -0.4960   0.00655   0.00189  -0.0019  0.9065  0.1174  -1.6686   0.0000   0.2402
  -4.000  -0.4421   0.00625   0.00164  -0.0014  0.8754  0.1497  -1.4445   0.0000   0.2411
  -3.500  -0.3878   0.00597   0.00142  -0.0010  0.8391  0.1884  -1.2421   0.0000   0.2420
  -3.000  -0.3333   0.00574   0.00123  -0.0007  0.7985  0.2317  -1.0629   0.0000   0.2427
  -2.500  -0.2783   0.00554   0.00107  -0.0005  0.7548  0.2781  -0.9049   0.0000   0.2434
  -2.000  -0.2230   0.00538   0.00095  -0.0003  0.7091  0.3259  -0.7690   0.0000   0.2439
  -1.500  -0.1675   0.00527   0.00086  -0.0002  0.6623  0.3747  -0.6541   0.0000   0.2443
  -1.000  -0.1118   0.00519   0.00080  -0.0001  0.6149  0.4231  -0.5585   0.0000   0.2446
  -0.500  -0.0559   0.00514   0.00076  -0.0000  0.5672  0.4714  -0.4795   0.0000   0.2447
   0.000  -0.0000   0.00512   0.00075  -0.0000  0.5195  0.5195  -0.4131   0.0000   0.2710
   0.500   0.0559   0.00514   0.00076   0.0000  0.4714  0.5672  -0.4795   0.0000   0.2448
   1.000   0.1118   0.00519   0.00080   0.0001  0.4231  0.6149  -0.5585   0.0000   0.2446
   1.500   0.1675   0.00527   0.00086   0.0002  0.3747  0.6623  -0.6541   0.0000   0.2443
   2.000   0.2230   0.00538   0.00095   0.0003  0.3259  0.7091  -0.7690   0.0000   0.2439
   2.500   0.2783   0.00554   0.00107   0.0005  0.2781  0.7548  -0.9049   0.0000   0.2434
   3.000   0.3333   0.00574   0.00123   0.0007  0.2318  0.7985  -1.0629   0.0000   0.2427
   3.500   0.3879   0.00597   0.00142   0.0011  0.1884  0.8391  -1.2421   0.0000   0.2420
   4.000   0.4421   0.00625   0.00164   0.0015  0.1497  0.8754  -1.4445   0.0000   0.2411
   4.500   0.4960   0.00655   0.00189   0.0020  0.1174  0.9065  -1.6687   0.0000   0.2402
   5.000   0.5494   0.00688   0.00217   0.0026  0.0920  0.9325  -1.9141   0.0000   0.2391
   6.000   0.6546   0.00759   0.00278   0.0043  0.0586  0.9708  -2.4670   0.0000   0.2366
   6.500   0.7089   0.00798   0.00311   0.0047  0.0479  0.9834  -2.7830   0.0000   0.2362
   7.000   0.7682   0.00840   0.00348   0.0039  0.0398  0.9906  -3.1336   0.0000   0.2373
   7.500   0.8317   0.00886   0.00389   0.0020  0.0335  0.9941  -3.5291   0.0000   0.2395
   8.000   0.8960   0.00933   0.00433   0.0000  0.0290  0.9963  -3.9488   0.0000   0.2414
   8.500   0.9604   0.00983   0.00480  -0.0021  0.0253  0.9979  -4.4006   0.0000   0.2431
   9.000   1.0237   0.01036   0.00531  -0.0040  0.0225  0.9996  -4.8761   0.0000   0.2443
   9.500   1.0727   0.01086   0.00581  -0.0028  0.0204  1.0000  -5.3106   0.0000   0.2424
  10.000   1.1157   0.01141   0.00635  -0.0004  0.0187  1.0000  -5.7418   0.0000   0.2395
  10.500   1.1607   0.01194   0.00689   0.0016  0.0174  1.0000  -6.2094   0.0000   0.2371
  11.000   1.2063   0.01257   0.00754   0.0033  0.0162  1.0000  -6.6927   0.0000   0.2350
  11.500   1.2534   0.01319   0.00818   0.0047  0.0151  1.0000  -7.2006   0.0000   0.2333
  12.000   1.2995   0.01396   0.00898   0.0061  0.0141  1.0000  -7.7135   0.0000   0.2317
  12.500   1.3460   0.01466   0.00972   0.0073  0.0134  1.0000  -8.2513   0.0000   0.2301
  13.000   1.3904   0.01552   0.01060   0.0088  0.0126  1.0000  -8.8099   0.0000   0.2284
  13.500   1.4329   0.01646   0.01160   0.0105  0.0120  1.0000  -9.3698   0.0000   0.2266
  14.000   1.4751   0.01733   0.01253   0.0122  0.0115  1.0000  -9.9469   0.0000   0.2248
  14.500   1.5140   0.01835   0.01360   0.0143  0.0109  1.0000  -10.5167   0.0000   0.2228
  15.000   1.5446   0.01971   0.01503   0.0174  0.0103  1.0000  -11.0368   0.0000   0.2200
  15.500   1.5713   0.02094   0.01636   0.0212  0.0101  1.0000  -11.5468   0.0000   0.2169
  16.000   1.5960   0.02241   0.01791   0.0245  0.0098  1.0000  -12.0516   0.0000   0.2141
  16.500   1.6172   0.02425   0.01986   0.0276  0.0096  1.0000  -12.5362   0.0000   0.2114
  17.000   1.6342   0.02664   0.02236   0.0301  0.0093  1.0000  -12.9917   0.0000   0.2090
  17.500   1.6455   0.02984   0.02567   0.0318  0.0090  1.0000  -13.4137   0.0000   0.2070
  18.000   1.6476   0.03441   0.03040   0.0325  0.0087  1.0000  -13.7550   0.0000   0.2054
  18.500   1.6390   0.04087   0.03705   0.0314  0.0085  1.0000  -13.9874   0.0000   0.2047
  19.000   1.6312   0.04793   0.04430   0.0290  0.0084  1.0000  -14.2198   0.0000   0.2048
  19.500   1.6088   0.05745   0.05403   0.0248  0.0083  1.0000  -14.2954   0.0000   0.2058
  20.000   1.5663   0.07051   0.06734   0.0185  0.0083  1.0000  -14.1397   0.0000   0.2080
  20.500   1.4938   0.08898   0.08613   0.0090  0.0083  1.0000  -13.6172   0.0000   0.2124
  21.000   1.3866   0.11448   0.11200  -0.0052  0.0084  1.0000  -12.5988   0.0000   0.2208
  21.500   1.2798   0.14199   0.13986  -0.0226  0.0085  1.0000  -11.3806   0.0000   0.2336
  22.000   1.2159   0.16294   0.16105  -0.0373  0.0085  1.0000  -10.5405   0.0000   0.2457
  22.500   1.1826   0.17842   0.17669  -0.0489  0.0084  1.0000  -10.0400   0.0000   0.2554
  23.000   1.1632   0.19125   0.18964  -0.0589  0.0083  1.0000  -9.6922   0.0000   0.2637
  23.500   1.1508   0.20283   0.20132  -0.0682  0.0081  1.0000  -9.4088   0.0000   0.2713
  24.000   1.1427   0.21363   0.21220  -0.0770  0.0079  1.0000  -9.1537   0.0000   0.2784
  24.500   1.1376   0.22380   0.22245  -0.0855  0.0076  1.0000  -8.9149   0.0000   0.2852
  25.000   1.1359   0.23328   0.23198  -0.0936  0.0073  1.0000  -8.7074   0.0000   0.2914
  25.500   1.1367   0.24218   0.24092  -0.1013  0.0069  1.0000  -8.5119   0.0000   0.2972
  27.500   1.0962   0.31303   0.31203  -0.1476  0.0031  1.0000  -3.0577   0.0000   0.3447


