xflr5 v6.33

 Calculated polar for: NACA 0012 v1

 1 1 Reynolds number fixed          Mach number fixed         

 xtrf =   1.000 (top)        1.000 (bottom)
 Mach =   0.000     Re =     1.800 e 6     Ncrit =   9.000

  alpha     CL        CD       CDp       Cm    Top Xtr Bot Xtr   Cpmin    Chinge    XCp    
 ------- -------- --------- --------- -------- ------- ------- -------- --------- ---------
 -24.000  -1.1005   0.22416   0.22267   0.0852  1.0000  0.0089  -8.0683   0.0000   0.2890
 -23.500  -1.1101   0.21239   0.21081   0.0758  1.0000  0.0093  -8.4600   0.0000   0.2805
 -23.000  -1.1230   0.20004   0.19835   0.0661  1.0000  0.0096  -8.8491   0.0000   0.2719
 -22.500  -1.1363   0.18816   0.18633   0.0568  1.0000  0.0098  -9.1628   0.0000   0.2639
 -22.000  -1.1505   0.17635   0.17440   0.0478  1.0000  0.0100  -9.4271   0.0000   0.2564
 -21.500  -1.1676   0.16426   0.16218   0.0390  1.0000  0.0102  -9.6778   0.0000   0.2492
 -21.000  -1.1907   0.15119   0.14896   0.0298  1.0000  0.0103  -9.9597   0.0000   0.2419
 -20.500  -1.2315   0.13509   0.13269   0.0191  1.0000  0.0104  -10.4161   0.0000   0.2334
 -20.000  -1.2880   0.11666   0.11403   0.0080  1.0000  0.0104  -10.9748   0.0000   0.2252
 -19.500  -1.3538   0.09748   0.09458  -0.0025  1.0000  0.0103  -11.5387   0.0000   0.2183
 -19.000  -1.4182   0.07940   0.07621  -0.0118  1.0000  0.0103  -12.0058   0.0000   0.2130
 -18.500  -1.4742   0.06345   0.05996  -0.0199  1.0000  0.0103  -12.3309   0.0000   0.2091
 -18.000  -1.5161   0.05046   0.04669  -0.0263  1.0000  0.0104  -12.4776   0.0000   0.2067
 -17.500  -1.5385   0.04117   0.03716  -0.0300  1.0000  0.0106  -12.4086   0.0000   0.2058
 -17.000  -1.5432   0.03502   0.03082  -0.0312  1.0000  0.0108  -12.1727   0.0000   0.2063
 -16.500  -1.5370   0.03075   0.02640  -0.0308  1.0000  0.0111  -11.8341   0.0000   0.2077
 -16.000  -1.5243   0.02760   0.02310  -0.0291  1.0000  0.0114  -11.4403   0.0000   0.2097
 -15.500  -1.5068   0.02519   0.02056  -0.0267  1.0000  0.0118  -11.0119   0.0000   0.2121
 -15.000  -1.4838   0.02342   0.01866  -0.0239  1.0000  0.0121  -10.5450   0.0000   0.2146
 -14.500  -1.4672   0.02142   0.01653  -0.0196  1.0000  0.0127  -10.1360   0.0000   0.2183
 -14.000  -1.4400   0.02008   0.01512  -0.0159  1.0000  0.0132  -9.6537   0.0000   0.2215
 -13.500  -1.4035   0.01895   0.01390  -0.0137  1.0000  0.0138  -9.1249   0.0000   0.2237
 -13.000  -1.3643   0.01788   0.01273  -0.0116  1.0000  0.0144  -8.5955   0.0000   0.2257
 -12.500  -1.3247   0.01672   0.01152  -0.0096  1.0000  0.0153  -8.0773   0.0000   0.2278
 -12.000  -1.2806   0.01587   0.01061  -0.0081  1.0000  0.0162  -7.5629   0.0000   0.2295
 -11.500  -1.2369   0.01494   0.00963  -0.0065  1.0000  0.0173  -7.0713   0.0000   0.2313
 -11.000  -1.1911   0.01419   0.00884  -0.0051  1.0000  0.0185  -6.5789   0.0000   0.2330
 -10.500  -1.1461   0.01341   0.00802  -0.0035  1.0000  0.0199  -6.1073   0.0000   0.2350
 -10.000  -1.1005   0.01281   0.00739  -0.0017  1.0000  0.0214  -5.6433   0.0000   0.2371
  -9.500  -1.0572   0.01214   0.00671   0.0005  1.0000  0.0235  -5.2194   0.0000   0.2398
  -9.000  -1.0143   0.01155   0.00611   0.0028  1.0000  0.0257  -4.8165   0.0000   0.2427
  -8.500  -0.9721   0.01102   0.00558   0.0054  1.0000  0.0284  -4.4279   0.0000   0.2461
  -7.500  -0.8546   0.00995   0.00454   0.0035  0.9971  0.0374  -3.5956   0.0000   0.2457
  -7.000  -0.7884   0.00941   0.00406   0.0010  0.9948  0.0448  -3.1874   0.0000   0.2433
  -6.000  -0.6557   0.00838   0.00319  -0.0041  0.9886  0.0702  -2.4659   0.0000   0.2367
  -5.500  -0.5948   0.00789   0.00281  -0.0053  0.9809  0.0905  -2.1573   0.0000   0.2344
  -5.000  -0.5392   0.00742   0.00246  -0.0052  0.9681  0.1170  -1.8886   0.0000   0.2340
  -4.500  -0.4869   0.00698   0.00215  -0.0043  0.9502  0.1505  -1.6484   0.0000   0.2350
  -4.000  -0.4348   0.00657   0.00187  -0.0034  0.9274  0.1912  -1.4299   0.0000   0.2364
  -3.500  -0.3820   0.00621   0.00161  -0.0026  0.8999  0.2374  -1.2323   0.0000   0.2376
  -3.000  -0.3286   0.00591   0.00140  -0.0020  0.8671  0.2870  -1.0557   0.0000   0.2386
  -2.500  -0.2746   0.00566   0.00123  -0.0015  0.8289  0.3381  -0.9001   0.0000   0.2395
  -2.000  -0.2202   0.00548   0.00109  -0.0011  0.7867  0.3897  -0.7660   0.0000   0.2402
  -1.500  -0.1654   0.00535   0.00099  -0.0007  0.7410  0.4415  -0.6524   0.0000   0.2408
  -1.000  -0.1105   0.00526   0.00092  -0.0005  0.6931  0.4928  -0.5578   0.0000   0.2413
  -0.500  -0.0553   0.00521   0.00088  -0.0002  0.6440  0.5438  -0.4793   0.0000   0.2415
   0.000  -0.0000   0.00519   0.00087  -0.0000  0.5942  0.5942  -0.4134   0.0000   0.4406
   0.500   0.0553   0.00521   0.00088   0.0002  0.5438  0.6440  -0.4793   0.0000   0.2415
   1.000   0.1105   0.00526   0.00092   0.0005  0.4928  0.6931  -0.5578   0.0000   0.2413
   1.500   0.1655   0.00535   0.00099   0.0007  0.4415  0.7410  -0.6524   0.0000   0.2408
   2.000   0.2202   0.00548   0.00109   0.0011  0.3898  0.7867  -0.7660   0.0000   0.2402
   2.500   0.2746   0.00566   0.00123   0.0015  0.3381  0.8289  -0.9002   0.0000   0.2395
   3.000   0.3286   0.00591   0.00140   0.0020  0.2870  0.8671  -1.0557   0.0000   0.2386
   3.500   0.3820   0.00621   0.00161   0.0027  0.2374  0.8999  -1.2324   0.0000   0.2376
   4.000   0.4348   0.00657   0.00187   0.0035  0.1911  0.9274  -1.4300   0.0000   0.2364
   4.500   0.4869   0.00698   0.00215   0.0044  0.1505  0.9502  -1.6485   0.0000   0.2351
   5.000   0.5392   0.00742   0.00246   0.0053  0.1170  0.9681  -1.8887   0.0000   0.2340
   5.500   0.5948   0.00789   0.00281   0.0054  0.0905  0.9809  -2.1573   0.0000   0.2344
   6.000   0.6557   0.00838   0.00319   0.0042  0.0702  0.9887  -2.4660   0.0000   0.2367
   6.500   0.7219   0.00890   0.00361   0.0018  0.0553  0.9921  -2.8149   0.0000   0.2403
   7.000   0.7884   0.00941   0.00406  -0.0007  0.0448  0.9948  -3.1875   0.0000   0.2433
   7.500   0.8547   0.00995   0.00454  -0.0032  0.0374  0.9971  -3.5958   0.0000   0.2457
   8.000   0.9204   0.01050   0.00506  -0.0057  0.0321  0.9992  -4.0209   0.0000   0.2476
   8.500   0.9720   0.01102   0.00558  -0.0050  0.0284  1.0000  -4.4276   0.0000   0.2461
   9.000   1.0143   0.01155   0.00611  -0.0024  0.0257  1.0000  -4.8162   0.0000   0.2427
   9.500   1.0572   0.01214   0.00671  -0.0000  0.0235  1.0000  -5.2192   0.0000   0.2397
  10.000   1.1005   0.01281   0.00739   0.0022  0.0214  1.0000  -5.6432   0.0000   0.2371
  10.500   1.1461   0.01341   0.00802   0.0040  0.0199  1.0000  -6.1074   0.0000   0.2350
  11.000   1.1912   0.01419   0.00884   0.0057  0.0185  1.0000  -6.5793   0.0000   0.2330
  11.500   1.2370   0.01494   0.00963   0.0071  0.0173  1.0000  -7.0718   0.0000   0.2313
  12.000   1.2807   0.01587   0.01061   0.0088  0.0162  1.0000  -7.5636   0.0000   0.2295
  12.500   1.3248   0.01672   0.01152   0.0103  0.0153  1.0000  -8.0782   0.0000   0.2278
  13.000   1.3645   0.01788   0.01274   0.0124  0.0144  1.0000  -8.5966   0.0000   0.2257
  13.500   1.4037   0.01895   0.01390   0.0144  0.0138  1.0000  -9.1265   0.0000   0.2237
  14.000   1.4404   0.02008   0.01512   0.0167  0.0132  1.0000  -9.6558   0.0000   0.2215
  14.500   1.4677   0.02142   0.01654   0.0204  0.0127  1.0000  -10.1389   0.0000   0.2184
  15.000   1.4844   0.02341   0.01866   0.0247  0.0121  1.0000  -10.5491   0.0000   0.2147
  15.500   1.5076   0.02519   0.02056   0.0276  0.0118  1.0000  -11.0167   0.0000   0.2121
  16.000   1.5252   0.02759   0.02309   0.0300  0.0114  1.0000  -11.4459   0.0000   0.2097
  16.500   1.5380   0.03073   0.02638   0.0317  0.0111  1.0000  -11.8408   0.0000   0.2078
  17.000   1.5443   0.03500   0.03080   0.0321  0.0108  1.0000  -12.1804   0.0000   0.2064
  17.500   1.5396   0.04115   0.03714   0.0309  0.0106  1.0000  -12.4167   0.0000   0.2060
  18.000   1.5172   0.05046   0.04669   0.0272  0.0104  1.0000  -12.4849   0.0000   0.2068
  18.500   1.4752   0.06349   0.06000   0.0207  0.0103  1.0000  -12.3366   0.0000   0.2093
  19.000   1.4192   0.07946   0.07627   0.0126  0.0102  1.0000  -12.0107   0.0000   0.2132
  19.500   1.3548   0.09754   0.09464   0.0032  0.0103  1.0000  -11.5437   0.0000   0.2185
  20.000   1.2891   0.11672   0.11409  -0.0074  0.0104  1.0000  -10.9802   0.0000   0.2254
  20.500   1.2325   0.13517   0.13277  -0.0186  0.0104  1.0000  -10.4211   0.0000   0.2336
  21.000   1.1917   0.15131   0.14908  -0.0293  0.0103  1.0000  -9.9642   0.0000   0.2421
  21.500   1.1688   0.16436   0.16227  -0.0385  0.0102  1.0000  -9.6841   0.0000   0.2494
  22.000   1.1516   0.17649   0.17454  -0.0474  0.0100  1.0000  -9.4326   0.0000   0.2566
  22.500   1.1374   0.18836   0.18654  -0.0565  0.0098  1.0000  -9.1682   0.0000   0.2641
  23.000   1.1242   0.20032   0.19863  -0.0658  0.0096  1.0000  -8.8537   0.0000   0.2721
  23.500   1.1113   0.21270   0.21112  -0.0756  0.0093  1.0000  -8.4660   0.0000   0.2807
  24.000   1.1020   0.22453   0.22303  -0.0850  0.0089  1.0000  -8.0792   0.0000   0.2891


