xflr5 v6.33

 Calculated polar for: NACA 0012-64

 1 1 Reynolds number fixed          Mach number fixed         

 xtrf =   1.000 (top)        1.000 (bottom)
 Mach =   0.000     Re =     0.600 e 6     Ncrit =   9.000

  alpha     CL        CD       CDp       Cm    Top Xtr Bot Xtr   Cpmin    Chinge    XCp    
 ------- -------- --------- --------- -------- ------- ------- -------- --------- ---------
 -28.000  -1.0208   0.32724   0.32500   0.1220  1.0000  0.0071  -2.0776   0.0000   0.3280
 -27.500  -1.0061   0.32205   0.31978   0.1169  1.0000  0.0077  -2.0688   0.0000   0.3260
 -27.000  -0.9907   0.31422   0.31195   0.1104  1.0000  0.0081  -2.3384   0.0000   0.3220
 -26.500  -0.9762   0.31007   0.30779   0.1065  1.0000  0.0083  -2.1681   0.0000   0.3212
 -26.000  -0.9613   0.30558   0.30329   0.1019  1.0000  0.0086  -2.0742   0.0000   0.3195
 -25.500  -0.9459   0.30033   0.29802   0.0971  1.0000  0.0093  -2.0478   0.0000   0.3173
 -25.000  -0.9311   0.29180   0.28950   0.0901  1.0000  0.0100  -2.3868   0.0000   0.3122
 -24.500  -0.9151   0.28726   0.28494   0.0868  1.0000  0.0102  -2.2025   0.0000   0.3115
 -24.000  -0.8992   0.28253   0.28020   0.0825  1.0000  0.0105  -2.0877   0.0000   0.3097
 -23.500  -0.8831   0.27702   0.27468   0.0779  1.0000  0.0113  -2.0371   0.0000   0.3073
 -23.000  -0.8691   0.26804   0.26571   0.0714  1.0000  0.0122  -2.3465   0.0000   0.3018
 -22.500  -0.8521   0.26356   0.26122   0.0681  1.0000  0.0125  -2.1699   0.0000   0.3008
 -22.000  -0.8357   0.25835   0.25600   0.0639  1.0000  0.0131  -2.0839   0.0000   0.2985
 -21.000  -0.8063   0.24350   0.24115   0.0538  1.0000  0.0149  -2.2589   0.0000   0.2904
 -20.500  -0.7892   0.23862   0.23627   0.0503  1.0000  0.0155  -2.1205   0.0000   0.2884
 -20.000  -0.7733   0.23245   0.23008   0.0461  1.0000  0.0166  -2.1009   0.0000   0.2852
 -19.500  -0.7646   0.22174   0.21939   0.0393  1.0000  0.0178  -2.4421   0.0000   0.2774
 -19.000  -0.7456   0.21753   0.21517   0.0370  1.0000  0.0183  -2.2204   0.0000   0.2766
 -18.500  -0.7298   0.21150   0.20913   0.0332  1.0000  0.0194  -2.1520   0.0000   0.2734
 -17.500  -1.0841   0.09304   0.09014  -0.0276  1.0000  0.0187  -8.9468   0.0000   0.1995
 -17.000  -1.1481   0.07304   0.06970  -0.0398  1.0000  0.0187  -9.4951   0.0000   0.1916
 -16.500  -1.1712   0.06219   0.05858  -0.0458  1.0000  0.0190  -9.5155   0.0000   0.1885
 -16.000  -1.1874   0.05375   0.04985  -0.0493  1.0000  0.0196  -9.4347   0.0000   0.1874
 -15.500  -1.1994   0.04692   0.04268  -0.0506  1.0000  0.0203  -9.3001   0.0000   0.1879
 -15.000  -1.2048   0.04176   0.03713  -0.0500  1.0000  0.0209  -9.0963   0.0000   0.1897
 -14.500  -1.2037   0.03748   0.03273  -0.0479  1.0000  0.0217  -8.8159   0.0000   0.1924
 -14.000  -1.1902   0.03498   0.03011  -0.0456  1.0000  0.0226  -8.4255   0.0000   0.1949
 -13.500  -1.1780   0.03258   0.02747  -0.0422  1.0000  0.0237  -8.0626   0.0000   0.1983
 -13.000  -1.1654   0.03072   0.02528  -0.0378  1.0000  0.0247  -7.7050   0.0000   0.2025
 -12.500  -1.1471   0.02804   0.02252  -0.0340  1.0000  0.0260  -7.3199   0.0000   0.2062
 -12.000  -1.1269   0.02670   0.02105  -0.0292  1.0000  0.0271  -6.9097   0.0000   0.2106
 -11.500  -1.1075   0.02549   0.01963  -0.0236  1.0000  0.0284  -6.5217   0.0000   0.2159
 -11.000  -1.0850   0.02361   0.01756  -0.0187  1.0000  0.0298  -6.1401   0.0000   0.2207
 -10.500  -1.0605   0.02253   0.01645  -0.0137  1.0000  0.0312  -5.7283   0.0000   0.2257
 -10.000  -1.0360   0.02153   0.01533  -0.0083  1.0000  0.0326  -5.3579   0.0000   0.2312
  -9.500  -1.0105   0.02065   0.01428  -0.0030  1.0000  0.0338  -5.0109   0.0000   0.2369
  -9.000  -0.9863   0.01899   0.01255   0.0023  1.0000  0.0354  -4.6966   0.0000   0.2428
  -8.500  -0.9587   0.01810   0.01163   0.0072  1.0000  0.0369  -4.3675   0.0000   0.2485
  -8.000  -0.9089   0.01711   0.01053   0.0075  0.9981  0.0387  -3.9708   0.0000   0.2498
  -7.500  -0.8472   0.01585   0.00918   0.0053  0.9951  0.0406  -3.5737   0.0000   0.2483
  -7.000  -0.7874   0.01475   0.00807   0.0036  0.9907  0.0431  -3.2098   0.0000   0.2470
  -6.500  -0.7219   0.01394   0.00719   0.0008  0.9877  0.0456  -2.8813   0.0000   0.2440
  -6.000  -0.6621   0.01301   0.00625  -0.0007  0.9823  0.0494  -2.6032   0.0000   0.2422
  -5.500  -0.5945   0.01227   0.00552  -0.0038  0.9792  0.0558  -2.3383   0.0000   0.2373
  -5.000  -0.5333   0.01152   0.00488  -0.0055  0.9734  0.0741  -2.0938   0.0000   0.2337
  -4.500  -0.4658   0.01068   0.00429  -0.0086  0.9703  0.1193  -1.8348   0.0000   0.2256
  -4.000  -0.4065   0.00985   0.00381  -0.0100  0.9639  0.1949  -1.6049   0.0000   0.2198
  -3.500  -0.3484   0.00869   0.00326  -0.0112  0.9585  0.3331  -1.3907   0.0000   0.2122
  -3.000  -0.3063   0.00742   0.00280  -0.0088  0.9479  0.5331  -1.2117   0.0000   0.2160
  -2.500  -0.2613   0.00671   0.00257  -0.0064  0.9368  0.6610  -1.0417   0.0000   0.2207
  -2.000  -0.2119   0.00636   0.00246  -0.0046  0.9258  0.7354  -0.8729   0.0000   0.2236
  -1.500  -0.1594   0.00617   0.00238  -0.0035  0.9145  0.7797  -0.7061   0.0000   0.2237
  -1.000  -0.1059   0.00606   0.00233  -0.0025  0.9025  0.8127  -0.5466   0.0000   0.2218
  -0.500  -0.0524   0.00600   0.00232  -0.0015  0.8891  0.8425  -0.4241   0.0000   0.2169
   0.000   0.0000   0.00597   0.00230  -0.0000  0.8693  0.8693  -0.3366   0.0000   0.4513
   0.500   0.0524   0.00600   0.00232   0.0015  0.8425  0.8891  -0.4241   0.0000   0.2169
   1.000   0.1059   0.00606   0.00233   0.0025  0.8127  0.9025  -0.5466   0.0000   0.2218
   1.500   0.1594   0.00617   0.00238   0.0035  0.7797  0.9145  -0.7061   0.0000   0.2237
   2.000   0.2119   0.00636   0.00246   0.0046  0.7354  0.9258  -0.8729   0.0000   0.2235
   2.500   0.2613   0.00671   0.00257   0.0064  0.6610  0.9368  -1.0417   0.0000   0.2207
   3.000   0.3063   0.00742   0.00280   0.0088  0.5331  0.9479  -1.2117   0.0000   0.2160
   3.500   0.3484   0.00869   0.00325   0.0112  0.3331  0.9585  -1.3907   0.0000   0.2122
   4.000   0.4065   0.00985   0.00381   0.0100  0.1949  0.9639  -1.6049   0.0000   0.2198
   4.500   0.4658   0.01068   0.00429   0.0086  0.1193  0.9703  -1.8348   0.0000   0.2256
   5.000   0.5333   0.01152   0.00488   0.0054  0.0741  0.9734  -2.0938   0.0000   0.2337
   5.500   0.5946   0.01227   0.00552   0.0038  0.0558  0.9792  -2.3384   0.0000   0.2373
   6.000   0.6621   0.01301   0.00625   0.0007  0.0494  0.9824  -2.6033   0.0000   0.2422
   6.500   0.7220   0.01393   0.00719  -0.0008  0.0456  0.9877  -2.8815   0.0000   0.2441
   7.000   0.7875   0.01475   0.00807  -0.0036  0.0431  0.9907  -3.2101   0.0000   0.2471
   7.500   0.8473   0.01585   0.00917  -0.0053  0.0406  0.9952  -3.5740   0.0000   0.2483
   8.000   0.9090   0.01710   0.01053  -0.0076  0.0386  0.9981  -3.9712   0.0000   0.2499
   8.500   0.9586   0.01810   0.01162  -0.0072  0.0369  1.0000  -4.3670   0.0000   0.2485
   9.000   0.9862   0.01899   0.01254  -0.0023  0.0354  1.0000  -4.6962   0.0000   0.2428
   9.500   1.0104   0.02064   0.01428   0.0030  0.0338  1.0000  -5.0104   0.0000   0.2369
  10.000   1.0360   0.02153   0.01533   0.0083  0.0326  1.0000  -5.3576   0.0000   0.2312
  10.500   1.0604   0.02253   0.01645   0.0137  0.0312  1.0000  -5.7282   0.0000   0.2257
  11.000   1.0851   0.02361   0.01756   0.0187  0.0298  1.0000  -6.1405   0.0000   0.2207
  11.500   1.1077   0.02548   0.01962   0.0236  0.0284  1.0000  -6.5227   0.0000   0.2159
  12.000   1.1273   0.02670   0.02105   0.0291  0.0271  1.0000  -6.9120   0.0000   0.2107
  12.500   1.1477   0.02804   0.02251   0.0338  0.0259  1.0000  -7.3232   0.0000   0.2063
  13.000   1.1660   0.03072   0.02527   0.0377  0.0247  1.0000  -7.7085   0.0000   0.2026
  13.500   1.1787   0.03258   0.02747   0.0421  0.0237  1.0000  -8.0671   0.0000   0.1984
  14.000   1.1912   0.03498   0.03010   0.0454  0.0226  1.0000  -8.4315   0.0000   0.1951
  14.500   1.2049   0.03746   0.03271   0.0477  0.0217  1.0000  -8.8238   0.0000   0.1926
  15.000   1.2060   0.04174   0.03711   0.0498  0.0209  1.0000  -9.1037   0.0000   0.1899
  15.500   1.2007   0.04691   0.04267   0.0503  0.0202  1.0000  -9.3083   0.0000   0.1882
  16.000   1.1890   0.05371   0.04982   0.0490  0.0195  1.0000  -9.4456   0.0000   0.1876
  16.500   1.1734   0.06209   0.05848   0.0455  0.0190  1.0000  -9.5320   0.0000   0.1888
  17.000   1.1512   0.07282   0.06947   0.0396  0.0186  1.0000  -9.5204   0.0000   0.1919
  17.500   1.0911   0.09204   0.08911   0.0279  0.0186  1.0000  -9.0203   0.0000   0.1994
  24.500   0.5728   0.24956   0.24757  -0.0349  0.0112  1.0000  -1.2040   0.0000   0.2901
  25.000   0.5797   0.25456   0.25258  -0.0375  0.0105  1.0000  -1.2226   0.0000   0.2932
  25.500   0.5872   0.25899   0.25702  -0.0400  0.0101  1.0000  -1.2937   0.0000   0.2956
  26.000   0.5930   0.26454   0.26259  -0.0425  0.0100  1.0000  -1.2737   0.0000   0.2986
  26.500   0.5976   0.27125   0.26931  -0.0455  0.0091  1.0000  -1.1267   0.0000   0.3027
  27.000   0.6040   0.27630   0.27439  -0.0482  0.0085  1.0000  -1.1488   0.0000   0.3056
  27.500   0.6105   0.28087   0.27897  -0.0508  0.0082  1.0000  -1.2165   0.0000   0.3080
  28.000   0.6158   0.28651   0.28464  -0.0535  0.0081  1.0000  -1.2000   0.0000   0.3108
  28.500   0.6205   0.29321   0.29135  -0.0563  0.0075  1.0000  -1.0825   0.0000   0.3143
  29.000   0.6260   0.29857   0.29672  -0.0591  0.0070  1.0000  -1.0762   0.0000   0.3170
  29.500   0.6315   0.30342   0.30160  -0.0618  0.0067  1.0000  -1.1081   0.0000   0.3195


