xflr5 v6.33

 Calculated polar for: NACA 0012 v1

 1 1 Reynolds number fixed          Mach number fixed         

 xtrf =   1.000 (top)        1.000 (bottom)
 Mach =   0.000     Re =     4.100 e 6     Ncrit =   9.000

  alpha     CL        CD       CDp       Cm    Top Xtr Bot Xtr   Cpmin    Chinge    XCp    
 ------- -------- --------- --------- -------- ------- ------- -------- --------- ---------
 -27.000  -1.1522   0.26426   0.26324   0.1221  1.0000  0.0055  -8.2790   0.0000   0.3101
 -26.500  -1.1480   0.25638   0.25534   0.1149  1.0000  0.0059  -8.4328   0.0000   0.3053
 -26.000  -1.1484   0.24703   0.24594   0.1067  1.0000  0.0062  -8.7122   0.0000   0.2991
 -25.500  -1.1488   0.23791   0.23676   0.0987  1.0000  0.0065  -8.9430   0.0000   0.2931
 -25.000  -1.1503   0.22861   0.22739   0.0906  1.0000  0.0067  -9.1543   0.0000   0.2870
 -24.500  -1.1544   0.21877   0.21747   0.0823  1.0000  0.0068  -9.3809   0.0000   0.2804
 -24.000  -1.1637   0.20775   0.20637   0.0731  1.0000  0.0070  -9.6774   0.0000   0.2729
 -23.500  -1.1939   0.19192   0.19041   0.0603  1.0000  0.0073  -10.3308   0.0000   0.2614
 -23.000  -1.2527   0.17067   0.16894   0.0438  1.0000  0.0074  -11.3432   0.0000   0.2465
 -22.500  -1.3426   0.14474   0.14270   0.0248  1.0000  0.0074  -12.6123   0.0000   0.2309
 -22.000  -1.4403   0.11937   0.11700   0.0082  1.0000  0.0072  -13.7409   0.0000   0.2193
 -21.500  -1.5314   0.09677   0.09408  -0.0047  1.0000  0.0071  -14.6062   0.0000   0.2119
 -21.000  -1.6072   0.07782   0.07483  -0.0145  1.0000  0.0071  -15.1907   0.0000   0.2074
 -20.500  -1.6628   0.06279   0.05954  -0.0218  1.0000  0.0071  -15.4976   0.0000   0.2048
 -20.000  -1.6989   0.05135   0.04787  -0.0269  1.0000  0.0072  -15.5626   0.0000   0.2035
 -19.500  -1.7182   0.04284   0.03917  -0.0300  1.0000  0.0074  -15.4342   0.0000   0.2033
 -19.000  -1.7243   0.03656   0.03274  -0.0314  1.0000  0.0076  -15.1598   0.0000   0.2039
 -18.500  -1.7210   0.03186   0.02790  -0.0314  1.0000  0.0078  -14.7895   0.0000   0.2051
 -18.000  -1.7111   0.02828   0.02422  -0.0304  1.0000  0.0080  -14.3550   0.0000   0.2068
 -17.500  -1.6962   0.02553   0.02136  -0.0285  1.0000  0.0082  -13.8775   0.0000   0.2089
 -17.000  -1.6772   0.02338   0.01911  -0.0260  1.0000  0.0083  -13.3707   0.0000   0.2112
 -16.500  -1.6545   0.02170   0.01734  -0.0230  1.0000  0.0084  -12.8571   0.0000   0.2139
 -16.000  -1.6332   0.02008   0.01563  -0.0192  1.0000  0.0088  -12.3654   0.0000   0.2170
 -15.500  -1.6089   0.01877   0.01425  -0.0151  1.0000  0.0092  -11.8557   0.0000   0.2203
 -15.000  -1.5740   0.01770   0.01313  -0.0126  1.0000  0.0096  -11.2803   0.0000   0.2227
 -14.500  -1.5341   0.01677   0.01215  -0.0107  1.0000  0.0100  -10.6847   0.0000   0.2246
 -14.000  -1.4915   0.01596   0.01129  -0.0091  1.0000  0.0102  -10.0835   0.0000   0.2264
 -13.500  -1.4493   0.01499   0.01029  -0.0074  1.0000  0.0110  -9.5064   0.0000   0.2282
 -13.000  -1.4041   0.01422   0.00949  -0.0061  1.0000  0.0116  -8.9207   0.0000   0.2298
 -12.500  -1.3571   0.01356   0.00880  -0.0050  1.0000  0.0121  -8.3394   0.0000   0.2313
 -12.000  -1.3106   0.01282   0.00804  -0.0037  1.0000  0.0130  -7.8000   0.0000   0.2329
 -11.500  -1.2630   0.01220   0.00740  -0.0026  1.0000  0.0138  -7.2711   0.0000   0.2345
 -11.000  -1.2158   0.01163   0.00682  -0.0012  1.0000  0.0147  -6.7602   0.0000   0.2363
 -10.500  -1.1706   0.01107   0.00627   0.0007  1.0000  0.0159  -6.2734   0.0000   0.2386
 -10.000  -1.1267   0.01059   0.00578   0.0029  1.0000  0.0171  -5.8075   0.0000   0.2412
  -9.500  -1.0725   0.01009   0.00528   0.0029  0.9993  0.0186  -5.3227   0.0000   0.2420
  -9.000  -1.0104   0.00957   0.00479   0.0012  0.9978  0.0209  -4.8336   0.0000   0.2411
  -8.500  -0.9472   0.00909   0.00433  -0.0007  0.9963  0.0235  -4.3588   0.0000   0.2398
  -8.000  -0.8843   0.00864   0.00391  -0.0025  0.9940  0.0266  -3.9150   0.0000   0.2383
  -7.500  -0.8239   0.00821   0.00352  -0.0037  0.9892  0.0308  -3.5088   0.0000   0.2372
  -7.000  -0.7685   0.00783   0.00318  -0.0036  0.9793  0.0358  -3.1386   0.0000   0.2374
  -6.500  -0.7160   0.00749   0.00286  -0.0028  0.9646  0.0424  -2.8070   0.0000   0.2386
  -6.000  -0.6632   0.00718   0.00256  -0.0021  0.9462  0.0509  -2.4923   0.0000   0.2398
  -5.500  -0.6097   0.00688   0.00227  -0.0015  0.9235  0.0624  -2.2000   0.0000   0.2409
  -5.000  -0.5554   0.00660   0.00200  -0.0011  0.8957  0.0777  -1.9290   0.0000   0.2418
  -4.500  -0.5008   0.00634   0.00175  -0.0007  0.8630  0.0985  -1.6795   0.0000   0.2426
  -4.000  -0.4460   0.00610   0.00153  -0.0005  0.8256  0.1255  -1.4523   0.0000   0.2433
  -3.500  -0.3910   0.00587   0.00133  -0.0003  0.7846  0.1585  -1.2473   0.0000   0.2439
  -3.000  -0.3357   0.00568   0.00115  -0.0001  0.7409  0.1968  -1.0665   0.0000   0.2445
  -2.500  -0.2802   0.00550   0.00101  -0.0000  0.6957  0.2391  -0.9073   0.0000   0.2450
  -2.000  -0.2244   0.00536   0.00089   0.0000  0.6502  0.2834  -0.7704   0.0000   0.2454
  -1.500  -0.1685   0.00525   0.00081   0.0001  0.6045  0.3292  -0.6549   0.0000   0.2457
  -1.000  -0.1124   0.00517   0.00075   0.0001  0.5587  0.3754  -0.5588   0.0000   0.2459
  -0.500  -0.0562   0.00512   0.00071   0.0000  0.5133  0.4216  -0.4794   0.0000   0.2460
   0.000  -0.0000   0.00510   0.00070  -0.0000  0.4676  0.4676  -0.4129   0.0000   0.8309
   0.500   0.0562   0.00512   0.00071  -0.0000  0.4216  0.5133  -0.4794   0.0000   0.2460
   1.000   0.1124   0.00517   0.00075  -0.0001  0.3754  0.5587  -0.5588   0.0000   0.2459
   1.500   0.1685   0.00525   0.00081  -0.0001  0.3292  0.6045  -0.6549   0.0000   0.2457
   2.000   0.2244   0.00536   0.00089  -0.0000  0.2833  0.6502  -0.7704   0.0000   0.2454
   2.500   0.2802   0.00550   0.00101   0.0000  0.2391  0.6957  -0.9073   0.0000   0.2450
   3.000   0.3357   0.00568   0.00115   0.0002  0.1968  0.7409  -1.0665   0.0000   0.2445
   3.500   0.3910   0.00587   0.00133   0.0003  0.1585  0.7846  -1.2474   0.0000   0.2440
   4.000   0.4460   0.00610   0.00153   0.0005  0.1255  0.8256  -1.4523   0.0000   0.2433
   4.500   0.5009   0.00634   0.00175   0.0008  0.0985  0.8630  -1.6795   0.0000   0.2426
   5.000   0.5554   0.00660   0.00200   0.0012  0.0777  0.8957  -1.9291   0.0000   0.2418
   5.500   0.6097   0.00688   0.00227   0.0016  0.0624  0.9235  -2.2001   0.0000   0.2409
   6.000   0.6633   0.00718   0.00256   0.0022  0.0509  0.9462  -2.4925   0.0000   0.2398
   6.500   0.7161   0.00749   0.00286   0.0030  0.0424  0.9646  -2.8072   0.0000   0.2386
   7.000   0.7685   0.00784   0.00318   0.0038  0.0358  0.9793  -3.1388   0.0000   0.2374
   7.500   0.8240   0.00821   0.00352   0.0039  0.0308  0.9892  -3.5089   0.0000   0.2372
   8.000   0.8844   0.00864   0.00391   0.0028  0.0266  0.9941  -3.9152   0.0000   0.2383
   8.500   0.9473   0.00909   0.00433   0.0010  0.0235  0.9963  -4.3590   0.0000   0.2398
   9.000   1.0105   0.00957   0.00479  -0.0008  0.0209  0.9978  -4.8338   0.0000   0.2411
   9.500   1.0726   0.01009   0.00528  -0.0025  0.0186  0.9993  -5.3229   0.0000   0.2420
  10.000   1.1266   0.01059   0.00577  -0.0024  0.0171  1.0000  -5.8071   0.0000   0.2412
  10.500   1.1706   0.01107   0.00627  -0.0001  0.0160  1.0000  -6.2731   0.0000   0.2386
  11.000   1.2158   0.01163   0.00682   0.0018  0.0147  1.0000  -6.7602   0.0000   0.2363
  11.500   1.2631   0.01220   0.00740   0.0032  0.0138  1.0000  -7.2713   0.0000   0.2345
  12.000   1.3107   0.01282   0.00804   0.0044  0.0130  1.0000  -7.8005   0.0000   0.2330
  12.500   1.3572   0.01356   0.00880   0.0057  0.0121  1.0000  -8.3401   0.0000   0.2313
  13.000   1.4043   0.01422   0.00949   0.0069  0.0116  1.0000  -8.9217   0.0000   0.2299
  13.500   1.4495   0.01500   0.01029   0.0082  0.0110  1.0000  -9.5076   0.0000   0.2282
  14.000   1.4917   0.01596   0.01129   0.0100  0.0102  1.0000  -10.0850   0.0000   0.2264
  14.500   1.5344   0.01677   0.01215   0.0116  0.0100  1.0000  -10.6864   0.0000   0.2247
  15.000   1.5743   0.01770   0.01313   0.0135  0.0096  1.0000  -11.2825   0.0000   0.2227
  15.500   1.6094   0.01877   0.01425   0.0161  0.0092  1.0000  -11.8589   0.0000   0.2204
  16.000   1.6338   0.02009   0.01563   0.0202  0.0088  1.0000  -12.3693   0.0000   0.2171
  16.500   1.6553   0.02169   0.01733   0.0241  0.0084  1.0000  -12.8622   0.0000   0.2139
  17.000   1.6781   0.02338   0.01910   0.0270  0.0083  1.0000  -13.3767   0.0000   0.2113
  17.500   1.6972   0.02552   0.02134   0.0296  0.0082  1.0000  -13.8848   0.0000   0.2090
  18.000   1.7122   0.02826   0.02419   0.0315  0.0080  1.0000  -14.3636   0.0000   0.2069
  18.500   1.7223   0.03183   0.02787   0.0326  0.0078  1.0000  -14.7995   0.0000   0.2052
  19.000   1.7257   0.03652   0.03269   0.0326  0.0076  1.0000  -15.1716   0.0000   0.2040
  19.500   1.7198   0.04278   0.03911   0.0312  0.0074  1.0000  -15.4475   0.0000   0.2034
  20.000   1.7006   0.05129   0.04781   0.0281  0.0072  1.0000  -15.5773   0.0000   0.2037
  20.500   1.6647   0.06272   0.05947   0.0230  0.0071  1.0000  -15.5131   0.0000   0.2049
  21.000   1.6091   0.07775   0.07476   0.0156  0.0071  1.0000  -15.2065   0.0000   0.2076
  21.500   1.5332   0.09672   0.09403   0.0057  0.0071  1.0000  -14.6214   0.0000   0.2121
  22.000   1.4419   0.11935   0.11698  -0.0073  0.0072  1.0000  -13.7536   0.0000   0.2195
  22.500   1.3440   0.14483   0.14279  -0.0240  0.0074  1.0000  -12.6223   0.0000   0.2311
  23.000   1.2539   0.17081   0.16908  -0.0432  0.0074  1.0000  -11.3499   0.0000   0.2467
  23.500   1.1950   0.19219   0.19068  -0.0599  0.0073  1.0000  -10.3350   0.0000   0.2616
  24.000   1.1649   0.20810   0.20672  -0.0727  0.0070  1.0000  -9.6824   0.0000   0.2731
  24.500   1.1558   0.21914   0.21784  -0.0819  0.0068  1.0000  -9.3883   0.0000   0.2806
  25.000   1.1517   0.22905   0.22783  -0.0904  0.0067  1.0000  -9.1604   0.0000   0.2871
  25.500   1.1502   0.23843   0.23727  -0.0985  0.0065  1.0000  -8.9498   0.0000   0.2933
  26.000   1.1497   0.24773   0.24663  -0.1066  0.0062  1.0000  -8.7158   0.0000   0.2993
  26.500   1.1495   0.25703   0.25599  -0.1148  0.0059  1.0000  -8.4401   0.0000   0.3055
  27.000   1.1524   0.26552   0.26451  -0.1224  0.0054  1.0000  -8.2299   0.0000   0.3108


