xflr5 v6.33

 Calculated polar for: NACA 0012-64

 1 1 Reynolds number fixed          Mach number fixed         

 xtrf =   1.000 (top)        1.000 (bottom)
 Mach =   0.000     Re =     4.800 e 6     Ncrit =   9.000

  alpha     CL        CD       CDp       Cm    Top Xtr Bot Xtr   Cpmin    Chinge    XCp    
 ------- -------- --------- --------- -------- ------- ------- -------- --------- ---------
 -26.000  -1.0210   0.26506   0.26411   0.0893  1.0000  0.0039  -7.5537   0.0000   0.2947
 -25.500  -1.0127   0.25769   0.25673   0.0831  1.0000  0.0044  -7.6000   0.0000   0.2905
 -25.000  -1.0038   0.25053   0.24956   0.0772  1.0000  0.0047  -7.5915   0.0000   0.2866
 -24.500  -1.0009   0.24117   0.24016   0.0702  1.0000  0.0050  -7.7802   0.0000   0.2807
 -24.000  -0.9935   0.23363   0.23259   0.0642  1.0000  0.0053  -7.7782   0.0000   0.2764
 -23.500  -1.0014   0.22121   0.22013   0.0554  1.0000  0.0059  -8.1998   0.0000   0.2678
 -22.500  -1.4576   0.10621   0.10389  -0.0182  1.0000  0.0052  -16.3487   0.0000   0.2001
 -22.000  -1.5820   0.07834   0.07557  -0.0335  1.0000  0.0051  -17.7218   0.0000   0.1932
 -21.500  -1.6328   0.06396   0.06093  -0.0406  1.0000  0.0051  -18.0026   0.0000   0.1911
 -21.000  -1.6604   0.05398   0.05074  -0.0446  1.0000  0.0052  -17.9505   0.0000   0.1907
 -20.500  -1.6808   0.04582   0.04239  -0.0466  1.0000  0.0054  -17.7892   0.0000   0.1913
 -20.000  -1.6908   0.03964   0.03605  -0.0469  1.0000  0.0056  -17.4890   0.0000   0.1927
 -19.500  -1.6925   0.03490   0.03118  -0.0460  1.0000  0.0059  -17.0872   0.0000   0.1946
 -19.000  -1.6870   0.03118   0.02734  -0.0443  1.0000  0.0061  -16.6065   0.0000   0.1967
 -18.500  -1.6754   0.02823   0.02427  -0.0422  1.0000  0.0063  -16.0648   0.0000   0.1990
 -18.000  -1.6587   0.02584   0.02178  -0.0397  1.0000  0.0065  -15.4855   0.0000   0.2014
 -17.500  -1.6408   0.02369   0.01953  -0.0369  1.0000  0.0068  -14.9155   0.0000   0.2039
 -17.000  -1.6225   0.02167   0.01743  -0.0335  1.0000  0.0073  -14.3507   0.0000   0.2068
 -16.500  -1.5988   0.02008   0.01576  -0.0302  1.0000  0.0078  -13.7439   0.0000   0.2096
 -16.000  -1.5706   0.01882   0.01444  -0.0272  1.0000  0.0081  -13.1112   0.0000   0.2122
 -15.500  -1.5434   0.01753   0.01308  -0.0237  1.0000  0.0089  -12.5219   0.0000   0.2151
 -15.000  -1.5130   0.01646   0.01197  -0.0203  1.0000  0.0097  -11.9163   0.0000   0.2179
 -14.500  -1.4815   0.01559   0.01104  -0.0168  1.0000  0.0104  -11.3132   0.0000   0.2209
 -14.000  -1.4528   0.01473   0.01015  -0.0124  1.0000  0.0116  -10.7427   0.0000   0.2246
 -13.500  -1.4251   0.01406   0.00946  -0.0075  1.0000  0.0127  -10.1883   0.0000   0.2286
 -13.000  -1.3829   0.01334   0.00873  -0.0057  0.9993  0.0143  -9.5530   0.0000   0.2306
 -12.500  -1.3285   0.01266   0.00804  -0.0064  0.9981  0.0155  -8.8601   0.0000   0.2308
 -12.000  -1.2726   0.01203   0.00742  -0.0074  0.9968  0.0169  -8.1793   0.0000   0.2306
 -11.500  -1.2147   0.01152   0.00690  -0.0086  0.9959  0.0176  -7.5084   0.0000   0.2300
 -11.000  -1.1576   0.01092   0.00631  -0.0097  0.9946  0.0191  -6.8698   0.0000   0.2295
 -10.500  -1.1032   0.01047   0.00587  -0.0100  0.9907  0.0202  -6.2654   0.0000   0.2295
 -10.000  -1.0485   0.01010   0.00550  -0.0103  0.9862  0.0208  -5.6895   0.0000   0.2294
  -9.000  -0.9510   0.00924   0.00462  -0.0080  0.9707  0.0228  -4.7652   0.0000   0.2320
  -8.500  -0.8999   0.00890   0.00427  -0.0073  0.9629  0.0237  -4.3234   0.0000   0.2329
  -8.000  -0.8479   0.00860   0.00396  -0.0068  0.9545  0.0244  -3.9072   0.0000   0.2336
  -7.500  -0.7952   0.00833   0.00368  -0.0064  0.9456  0.0247  -3.5293   0.0000   0.2341
  -7.000  -0.7431   0.00794   0.00326  -0.0058  0.9359  0.0265  -3.2106   0.0000   0.2347
  -6.500  -0.6896   0.00764   0.00295  -0.0055  0.9260  0.0276  -2.9280   0.0000   0.2350
  -6.000  -0.6356   0.00738   0.00268  -0.0053  0.9158  0.0285  -2.6519   0.0000   0.2350
  -5.500  -0.5811   0.00716   0.00244  -0.0052  0.9038  0.0291  -2.3835   0.0000   0.2348
  -5.000  -0.5269   0.00690   0.00217  -0.0050  0.8909  0.0318  -2.1298   0.0000   0.2347
  -4.500  -0.4721   0.00668   0.00194  -0.0048  0.8780  0.0351  -1.8810   0.0000   0.2341
  -4.000  -0.4183   0.00637   0.00170  -0.0046  0.8638  0.0513  -1.6455   0.0000   0.2337
  -3.500  -0.3641   0.00611   0.00150  -0.0044  0.8487  0.0717  -1.4315   0.0000   0.2329
  -3.000  -0.3093   0.00589   0.00133  -0.0043  0.8330  0.0914  -1.2245   0.0000   0.2313
  -2.000  -0.2021   0.00538   0.00103  -0.0036  0.7823  0.1795  -0.8629   0.0000   0.2277
  -1.500  -0.1497   0.00514   0.00090  -0.0030  0.7449  0.2466  -0.6965   0.0000   0.2252
  -1.000  -0.1001   0.00466   0.00074  -0.0020  0.7067  0.3794  -0.5421   0.0000   0.2257
  -0.500  -0.0496   0.00436   0.00065  -0.0011  0.6603  0.4879  -0.4232   0.0000   0.2234
   0.000  -0.0000   0.00443   0.00064   0.0000  0.5617  0.5617  -0.3385   0.0000   0.4708
   0.500   0.0496   0.00436   0.00065   0.0011  0.4879  0.6603  -0.4232   0.0000   0.2234
   1.000   0.1001   0.00466   0.00074   0.0020  0.3794  0.7067  -0.5421   0.0000   0.2257
   1.500   0.1497   0.00514   0.00090   0.0030  0.2466  0.7449  -0.6965   0.0000   0.2253
   2.000   0.2022   0.00538   0.00103   0.0036  0.1795  0.7823  -0.8629   0.0000   0.2277
   2.500   0.2555   0.00561   0.00117   0.0040  0.1317  0.8129  -1.0381   0.0000   0.2297
   3.000   0.3093   0.00589   0.00133   0.0042  0.0914  0.8330  -1.2245   0.0000   0.2313
   3.500   0.3641   0.00611   0.00150   0.0044  0.0717  0.8487  -1.4316   0.0000   0.2329
   4.000   0.4184   0.00637   0.00170   0.0046  0.0513  0.8638  -1.6456   0.0000   0.2337
   4.500   0.4722   0.00668   0.00194   0.0048  0.0351  0.8780  -1.8811   0.0000   0.2341
   5.000   0.5269   0.00690   0.00217   0.0049  0.0318  0.8908  -2.1299   0.0000   0.2347
   5.500   0.5811   0.00716   0.00244   0.0052  0.0291  0.9039  -2.3837   0.0000   0.2349
   6.000   0.6356   0.00738   0.00268   0.0053  0.0285  0.9157  -2.6521   0.0000   0.2350
   6.500   0.6897   0.00764   0.00295   0.0055  0.0276  0.9260  -2.9282   0.0000   0.2350
   7.000   0.7432   0.00794   0.00326   0.0058  0.0265  0.9359  -3.2109   0.0000   0.2348
   7.500   0.7953   0.00833   0.00368   0.0063  0.0247  0.9456  -3.5297   0.0000   0.2341
   8.000   0.8481   0.00860   0.00396   0.0067  0.0244  0.9545  -3.9076   0.0000   0.2336
   8.500   0.9001   0.00890   0.00427   0.0073  0.0237  0.9629  -4.3240   0.0000   0.2329
   9.000   0.9512   0.00924   0.00462   0.0080  0.0228  0.9707  -4.7659   0.0000   0.2321
   9.500   1.0001   0.00967   0.00505   0.0091  0.0215  0.9786  -5.2129   0.0000   0.2307
  10.000   1.0487   0.01010   0.00550   0.0102  0.0208  0.9862  -5.6905   0.0000   0.2294
  10.500   1.1034   0.01047   0.00587   0.0100  0.0202  0.9907  -6.2664   0.0000   0.2295
  11.000   1.1578   0.01092   0.00631   0.0097  0.0191  0.9946  -6.8709   0.0000   0.2295
  11.500   1.2149   0.01152   0.00690   0.0086  0.0176  0.9959  -7.5097   0.0000   0.2301
  12.000   1.2729   0.01203   0.00742   0.0073  0.0169  0.9968  -8.1807   0.0000   0.2306
  12.500   1.3288   0.01266   0.00804   0.0064  0.0155  0.9981  -8.8617   0.0000   0.2308
  13.000   1.3832   0.01334   0.00873   0.0057  0.0143  0.9994  -9.5549   0.0000   0.2307
  13.500   1.4250   0.01406   0.00945   0.0076  0.0127  1.0000  -10.1878   0.0000   0.2286
  14.000   1.4530   0.01472   0.01015   0.0124  0.0116  1.0000  -10.7442   0.0000   0.2246
  14.500   1.4821   0.01559   0.01104   0.0167  0.0104  1.0000  -11.3173   0.0000   0.2210
  15.000   1.5138   0.01646   0.01197   0.0202  0.0097  1.0000  -11.9215   0.0000   0.2180
  15.500   1.5442   0.01753   0.01308   0.0235  0.0089  1.0000  -12.5278   0.0000   0.2152
  16.000   1.5716   0.01882   0.01443   0.0270  0.0081  1.0000  -13.1184   0.0000   0.2123
  16.500   1.5999   0.02008   0.01576   0.0300  0.0078  1.0000  -13.7524   0.0000   0.2097
  17.000   1.6237   0.02166   0.01742   0.0333  0.0073  1.0000  -14.3603   0.0000   0.2070
  17.500   1.6421   0.02368   0.01952   0.0366  0.0068  1.0000  -14.9262   0.0000   0.2041
  18.000   1.6603   0.02582   0.02176   0.0395  0.0065  1.0000  -15.4989   0.0000   0.2015
  18.500   1.6772   0.02820   0.02424   0.0419  0.0063  1.0000  -16.0804   0.0000   0.1992
  19.000   1.6889   0.03114   0.02730   0.0440  0.0061  1.0000  -16.6239   0.0000   0.1969
  19.500   1.6946   0.03485   0.03112   0.0457  0.0059  1.0000  -17.1068   0.0000   0.1948
  20.000   1.6930   0.03958   0.03600   0.0466  0.0056  1.0000  -17.5102   0.0000   0.1929
  20.500   1.6833   0.04574   0.04232   0.0463  0.0054  1.0000  -17.8127   0.0000   0.1915
  21.000   1.6630   0.05389   0.05065   0.0443  0.0052  1.0000  -17.9759   0.0000   0.1909
  21.500   1.6364   0.06375   0.06072   0.0403  0.0051  1.0000  -18.0396   0.0000   0.1913
  22.000   1.5865   0.07801   0.07524   0.0333  0.0051  1.0000  -17.7702   0.0000   0.1934
  22.500   1.4604   0.10618   0.10385   0.0178  0.0052  1.0000  -16.3747   0.0000   0.2004
  23.000   1.0378   0.20203   0.20083  -0.0425  0.0063  1.0000  -9.2009   0.0000   0.2538
  23.500   1.0030   0.22183   0.22076  -0.0559  0.0059  1.0000  -8.2040   0.0000   0.2682
  24.000   0.9953   0.23433   0.23329  -0.0647  0.0053  1.0000  -7.7861   0.0000   0.2767
  24.500   1.0027   0.24200   0.24099  -0.0707  0.0050  1.0000  -7.7863   0.0000   0.2811
  25.000   1.0056   0.25145   0.25048  -0.0777  0.0047  1.0000  -7.5992   0.0000   0.2870
  25.500   1.0146   0.25871   0.25775  -0.0837  0.0044  1.0000  -7.6064   0.0000   0.2909
  26.000   1.0227   0.26632   0.26537  -0.0899  0.0039  1.0000  -7.5504   0.0000   0.2952
  26.500   1.0312   0.27383   0.27291  -0.0960  0.0038  1.0000  -7.4930   0.0000   0.2992
  27.000   1.0366   0.28295   0.28208  -0.1030  0.0035  1.0000  -7.2310   0.0000   0.3046
  27.500   1.0467   0.28980   0.28895  -0.1089  0.0033  1.0000  -7.1999   0.0000   0.3080


