xflr5 v6.33

 Calculated polar for: NACA 0012 v1

 1 1 Reynolds number fixed          Mach number fixed         

 xtrf =   1.000 (top)        1.000 (bottom)
 Mach =   0.000     Re =     4.600 e 6     Ncrit =   9.000

  alpha     CL        CD       CDp       Cm    Top Xtr Bot Xtr   Cpmin    Chinge    XCp    
 ------- -------- --------- --------- -------- ------- ------- -------- --------- ---------
 -27.500  -1.1434   0.27780   0.27693   0.1328  1.0000  0.0049  -7.5165   0.0000   0.3201
 -27.000  -1.1581   0.26220   0.26120   0.1208  1.0000  0.0054  -8.5075   0.0000   0.3081
 -26.500  -1.1542   0.25435   0.25331   0.1135  1.0000  0.0057  -8.6603   0.0000   0.3033
 -26.000  -1.1536   0.24553   0.24445   0.1056  1.0000  0.0061  -8.8902   0.0000   0.2975
 -25.500  -1.1542   0.23641   0.23528   0.0976  1.0000  0.0063  -9.1060   0.0000   0.2916
 -25.000  -1.1583   0.22640   0.22520   0.0890  1.0000  0.0066  -9.3711   0.0000   0.2848
 -24.500  -1.1641   0.21625   0.21498   0.0803  1.0000  0.0067  -9.6184   0.0000   0.2780
 -24.000  -1.1778   0.20424   0.20286   0.0704  1.0000  0.0068  -9.9879   0.0000   0.2696
 -23.500  -1.2043   0.18959   0.18808   0.0586  1.0000  0.0069  -10.5306   0.0000   0.2594
 -23.000  -1.2771   0.16563   0.16387   0.0400  1.0000  0.0070  -11.7456   0.0000   0.2427
 -22.500  -1.3676   0.14009   0.13802   0.0216  1.0000  0.0069  -12.9665   0.0000   0.2281
 -22.000  -1.4886   0.11101   0.10856   0.0031  1.0000  0.0068  -14.3489   0.0000   0.2157
 -21.500  -1.5867   0.08790   0.08510  -0.0095  1.0000  0.0068  -15.2516   0.0000   0.2090
 -21.000  -1.6547   0.07066   0.06758  -0.0182  1.0000  0.0068  -15.7200   0.0000   0.2055
 -20.500  -1.6967   0.05803   0.05473  -0.0241  1.0000  0.0068  -15.8607   0.0000   0.2038
 -20.000  -1.7201   0.04859   0.04508  -0.0280  1.0000  0.0069  -15.7821   0.0000   0.2031
 -19.500  -1.7336   0.04101   0.03733  -0.0305  1.0000  0.0070  -15.5885   0.0000   0.2032
 -19.000  -1.7415   0.03472   0.03087  -0.0315  1.0000  0.0072  -15.3304   0.0000   0.2040
 -18.500  -1.7388   0.03017   0.02620  -0.0311  1.0000  0.0075  -14.9613   0.0000   0.2055
 -18.000  -1.7285   0.02684   0.02275  -0.0296  1.0000  0.0077  -14.5174   0.0000   0.2074
 -17.500  -1.7128   0.02430   0.02012  -0.0274  1.0000  0.0079  -14.0279   0.0000   0.2097
 -17.000  -1.6929   0.02233   0.01806  -0.0246  1.0000  0.0081  -13.5072   0.0000   0.2122
 -16.500  -1.6695   0.02078   0.01643  -0.0214  1.0000  0.0083  -12.9840   0.0000   0.2149
 -16.000  -1.6431   0.01953   0.01511  -0.0180  1.0000  0.0084  -12.4447   0.0000   0.2178
 -15.500  -1.6166   0.01831   0.01381  -0.0141  1.0000  0.0088  -11.9191   0.0000   0.2210
 -15.000  -1.5809   0.01719   0.01265  -0.0117  1.0000  0.0093  -11.3395   0.0000   0.2233
 -14.500  -1.5406   0.01626   0.01168  -0.0098  1.0000  0.0097  -10.7391   0.0000   0.2252
 -14.000  -1.4975   0.01545   0.01083  -0.0083  1.0000  0.0101  -10.1334   0.0000   0.2269
 -13.500  -1.4531   0.01466   0.01000  -0.0069  1.0000  0.0105  -9.5368   0.0000   0.2286
 -13.000  -1.4082   0.01384   0.00916  -0.0055  1.0000  0.0113  -8.9538   0.0000   0.2303
 -12.500  -1.3611   0.01317   0.00847  -0.0044  1.0000  0.0119  -8.3709   0.0000   0.2318
 -12.000  -1.3134   0.01254   0.00782  -0.0033  1.0000  0.0125  -7.8204   0.0000   0.2333
 -11.500  -1.2661   0.01189   0.00716  -0.0021  1.0000  0.0135  -7.2936   0.0000   0.2349
 -11.000  -1.2187   0.01137   0.00663  -0.0007  1.0000  0.0142  -6.7790   0.0000   0.2367
 -10.500  -1.1740   0.01081   0.00608   0.0013  1.0000  0.0155  -6.2945   0.0000   0.2391
 -10.000  -1.1300   0.01037   0.00563   0.0035  1.0000  0.0164  -5.8261   0.0000   0.2418
  -9.500  -1.0689   0.00982   0.00510   0.0020  0.9988  0.0183  -5.3115   0.0000   0.2412
  -9.000  -1.0068   0.00932   0.00463   0.0003  0.9972  0.0204  -4.8223   0.0000   0.2402
  -8.500  -0.9436   0.00886   0.00419  -0.0016  0.9960  0.0229  -4.3473   0.0000   0.2388
  -8.000  -0.8821   0.00842   0.00379  -0.0030  0.9926  0.0259  -3.9095   0.0000   0.2376
  -7.500  -0.8247   0.00804   0.00343  -0.0035  0.9851  0.0297  -3.5128   0.0000   0.2373
  -7.000  -0.7715   0.00768   0.00310  -0.0029  0.9727  0.0345  -3.1491   0.0000   0.2383
  -6.500  -0.7191   0.00736   0.00279  -0.0021  0.9564  0.0406  -2.8168   0.0000   0.2396
  -6.000  -0.6657   0.00705   0.00249  -0.0015  0.9360  0.0487  -2.4998   0.0000   0.2407
  -5.500  -0.6116   0.00678   0.00222  -0.0011  0.9110  0.0592  -2.2054   0.0000   0.2416
  -5.000  -0.5571   0.00652   0.00195  -0.0007  0.8811  0.0738  -1.9333   0.0000   0.2425
  -4.500  -0.5022   0.00628   0.00171  -0.0004  0.8461  0.0931  -1.6825   0.0000   0.2432
  -3.500  -0.3918   0.00585   0.00130  -0.0001  0.7648  0.1497  -1.2488   0.0000   0.2444
  -3.000  -0.3364   0.00566   0.00113   0.0000  0.7208  0.1862  -1.0676   0.0000   0.2450
  -2.500  -0.2807   0.00549   0.00099   0.0001  0.6756  0.2267  -0.9079   0.0000   0.2454
  -2.000  -0.2248   0.00535   0.00088   0.0001  0.6306  0.2701  -0.7708   0.0000   0.2458
  -1.500  -0.1688   0.00525   0.00079   0.0001  0.5854  0.3147  -0.6550   0.0000   0.2461
  -1.000  -0.1126   0.00516   0.00074   0.0001  0.5404  0.3599  -0.5588   0.0000   0.2463
  -0.500  -0.0563   0.00512   0.00070   0.0001  0.4957  0.4053  -0.4794   0.0000   0.2464
   0.500   0.0563   0.00512   0.00070  -0.0000  0.4053  0.4957  -0.4794   0.0000   0.2464
   1.000   0.1126   0.00516   0.00074  -0.0001  0.3599  0.5404  -0.5588   0.0000   0.2463
   1.500   0.1688   0.00525   0.00079  -0.0001  0.3147  0.5854  -0.6550   0.0000   0.2461
   2.000   0.2248   0.00535   0.00088  -0.0001  0.2701  0.6306  -0.7708   0.0000   0.2458
   2.500   0.2807   0.00549   0.00099  -0.0001  0.2267  0.6756  -0.9079   0.0000   0.2454
   3.000   0.3364   0.00566   0.00113   0.0000  0.1862  0.7208  -1.0676   0.0000   0.2450
   3.500   0.3918   0.00585   0.00130   0.0001  0.1497  0.7648  -1.2489   0.0000   0.2444
   4.500   0.5022   0.00628   0.00171   0.0005  0.0931  0.8461  -1.6826   0.0000   0.2432
   5.000   0.5571   0.00652   0.00195   0.0008  0.0738  0.8810  -1.9334   0.0000   0.2425
   5.500   0.6116   0.00678   0.00222   0.0012  0.0592  0.9109  -2.2055   0.0000   0.2417
   6.000   0.6658   0.00705   0.00249   0.0017  0.0487  0.9360  -2.4999   0.0000   0.2407
   6.500   0.7191   0.00736   0.00279   0.0023  0.0406  0.9564  -2.8170   0.0000   0.2396
   7.000   0.7715   0.00768   0.00310   0.0031  0.0345  0.9727  -3.1493   0.0000   0.2383
   7.500   0.8247   0.00804   0.00343   0.0038  0.0297  0.9851  -3.5130   0.0000   0.2374
   8.000   0.8822   0.00842   0.00379   0.0033  0.0259  0.9926  -3.9097   0.0000   0.2376
   8.500   0.9436   0.00886   0.00419   0.0020  0.0229  0.9960  -4.3476   0.0000   0.2388
   9.000   1.0069   0.00932   0.00463   0.0001  0.0204  0.9972  -4.8226   0.0000   0.2402
   9.500   1.0690   0.00982   0.00510  -0.0016  0.0183  0.9988  -5.3118   0.0000   0.2412
  10.000   1.1301   0.01037   0.00563  -0.0030  0.0164  1.0000  -5.8263   0.0000   0.2418
  10.500   1.1739   0.01081   0.00608  -0.0007  0.0155  1.0000  -6.2941   0.0000   0.2391
  11.000   1.2187   0.01137   0.00663   0.0013  0.0142  1.0000  -6.7789   0.0000   0.2367
  11.500   1.2662   0.01188   0.00716   0.0027  0.0135  1.0000  -7.2938   0.0000   0.2349
  12.000   1.3135   0.01254   0.00782   0.0040  0.0125  1.0000  -7.8209   0.0000   0.2333
  12.500   1.3613   0.01317   0.00847   0.0051  0.0119  1.0000  -8.3716   0.0000   0.2318
  13.000   1.4084   0.01384   0.00916   0.0063  0.0113  1.0000  -8.9546   0.0000   0.2303
  13.500   1.4533   0.01466   0.01000   0.0077  0.0105  1.0000  -9.5379   0.0000   0.2286
  14.000   1.4977   0.01545   0.01083   0.0091  0.0101  1.0000  -10.1348   0.0000   0.2270
  14.500   1.5409   0.01626   0.01168   0.0107  0.0097  1.0000  -10.7408   0.0000   0.2252
  15.000   1.5812   0.01719   0.01265   0.0126  0.0093  1.0000  -11.3415   0.0000   0.2233
  15.500   1.6170   0.01831   0.01381   0.0151  0.0088  1.0000  -11.9217   0.0000   0.2210
  16.000   1.6437   0.01953   0.01511   0.0190  0.0084  1.0000  -12.4488   0.0000   0.2179
  16.500   1.6702   0.02077   0.01643   0.0224  0.0083  1.0000  -12.9888   0.0000   0.2150
  17.000   1.6937   0.02233   0.01806   0.0256  0.0081  1.0000  -13.5130   0.0000   0.2123
  17.500   1.7138   0.02429   0.02011   0.0285  0.0079  1.0000  -14.0349   0.0000   0.2098
  18.000   1.7295   0.02682   0.02273   0.0308  0.0077  1.0000  -14.5255   0.0000   0.2075
  18.500   1.7400   0.03015   0.02617   0.0323  0.0075  1.0000  -14.9707   0.0000   0.2056
  19.000   1.7428   0.03469   0.03084   0.0328  0.0072  1.0000  -15.3409   0.0000   0.2041
  19.500   1.7351   0.04097   0.03729   0.0317  0.0069  1.0000  -15.6002   0.0000   0.2033
  20.000   1.7222   0.04849   0.04498   0.0293  0.0069  1.0000  -15.7996   0.0000   0.2032
  20.500   1.6990   0.05791   0.05460   0.0253  0.0068  1.0000  -15.8810   0.0000   0.2039
  21.000   1.6574   0.07049   0.06741   0.0194  0.0068  1.0000  -15.7443   0.0000   0.2056
  21.500   1.5897   0.08769   0.08489   0.0107  0.0068  1.0000  -15.2796   0.0000   0.2091
  22.000   1.4915   0.11081   0.10835  -0.0020  0.0068  1.0000  -14.3779   0.0000   0.2158
  22.500   1.3699   0.13997   0.13789  -0.0206  0.0069  1.0000  -12.9901   0.0000   0.2282
  23.000   1.2779   0.16583   0.16406  -0.0394  0.0070  1.0000  -11.7461   0.0000   0.2429
  23.500   1.2053   0.18989   0.18839  -0.0581  0.0069  1.0000  -10.5326   0.0000   0.2596
  24.000   1.1791   0.20453   0.20316  -0.0700  0.0068  1.0000  -9.9959   0.0000   0.2698
  24.500   1.1654   0.21660   0.21533  -0.0800  0.0067  1.0000  -9.6256   0.0000   0.2782
  25.000   1.1597   0.22681   0.22561  -0.0887  0.0066  1.0000  -9.3779   0.0000   0.2850
  25.500   1.1556   0.23686   0.23573  -0.0974  0.0063  1.0000  -9.1131   0.0000   0.2917
  26.000   1.1551   0.24605   0.24497  -0.1054  0.0061  1.0000  -8.8968   0.0000   0.2977
  26.500   1.1557   0.25508   0.25404  -0.1134  0.0057  1.0000  -8.6680   0.0000   0.3035
  27.000   1.1597   0.26297   0.26198  -0.1207  0.0054  1.0000  -8.5139   0.0000   0.3083
  27.500   1.1398   0.28112   0.28027  -0.1342  0.0048  1.0000  -7.2617   0.0000   0.3224


