xflr5 v6.33

 Calculated polar for: NACA 0012-64

 1 1 Reynolds number fixed          Mach number fixed         

 xtrf =   1.000 (top)        1.000 (bottom)
 Mach =   0.000     Re =     1.900 e 6     Ncrit =   9.000

  alpha     CL        CD       CDp       Cm    Top Xtr Bot Xtr   Cpmin    Chinge    XCp    
 ------- -------- --------- --------- -------- ------- ------- -------- --------- ---------
 -26.500  -0.6048   0.26792   0.26683   0.0468  1.0000  0.0040  -1.4811   0.0000   0.3030
 -26.000  -0.5978   0.26348   0.26239   0.0440  1.0000  0.0042  -1.4040   0.0000   0.3002
 -25.500  -0.5910   0.25865   0.25754   0.0413  1.0000  0.0044  -1.3647   0.0000   0.2973
 -24.500  -0.9182   0.28779   0.28649   0.0881  1.0000  0.0047  -2.3498   0.0000   0.3126
 -24.000  -0.5742   0.24148   0.24034   0.0333  1.0000  0.0054  -1.5024   0.0000   0.2869
 -23.500  -0.5671   0.23668   0.23554   0.0306  1.0000  0.0058  -1.4756   0.0000   0.2837
 -22.500  -0.9787   0.20797   0.20652   0.0450  1.0000  0.0088  -7.8319   0.0000   0.2609
 -22.000  -1.0105   0.18975   0.18818   0.0330  1.0000  0.0094  -8.6695   0.0000   0.2481
 -21.500  -1.0597   0.16878   0.16703   0.0193  1.0000  0.0097  -9.6464   0.0000   0.2343
 -21.000  -1.2610   0.11939   0.11714  -0.0106  1.0000  0.0091  -12.6966   0.0000   0.2083
 -20.500  -1.4210   0.08299   0.08015  -0.0306  1.0000  0.0085  -14.5896   0.0000   0.1965
 -20.000  -1.4844   0.06542   0.06224  -0.0400  1.0000  0.0085  -15.0595   0.0000   0.1927
 -19.500  -1.5197   0.05389   0.05044  -0.0450  1.0000  0.0087  -15.1259   0.0000   0.1915
 -19.000  -1.5381   0.04585   0.04218  -0.0471  1.0000  0.0090  -14.9741   0.0000   0.1920
 -18.500  -1.5454   0.03992   0.03607  -0.0473  1.0000  0.0093  -14.6921   0.0000   0.1933
 -18.000  -1.5437   0.03543   0.03140  -0.0464  1.0000  0.0096  -14.3129   0.0000   0.1951
 -17.500  -1.5347   0.03195   0.02774  -0.0447  1.0000  0.0100  -13.8616   0.0000   0.1971
 -17.000  -1.5274   0.02858   0.02423  -0.0422  1.0000  0.0106  -13.4320   0.0000   0.1998
 -16.500  -1.5125   0.02603   0.02157  -0.0394  1.0000  0.0113  -12.9309   0.0000   0.2024
 -16.000  -1.4914   0.02407   0.01948  -0.0365  1.0000  0.0120  -12.3832   0.0000   0.2050
 -15.500  -1.4691   0.02225   0.01757  -0.0334  1.0000  0.0130  -11.8573   0.0000   0.2077
 -15.000  -1.4417   0.02085   0.01610  -0.0304  1.0000  0.0140  -11.2948   0.0000   0.2103
 -14.500  -1.4113   0.01969   0.01484  -0.0274  1.0000  0.0149  -10.7220   0.0000   0.2128
 -14.000  -1.3804   0.01860   0.01371  -0.0243  1.0000  0.0162  -10.1548   0.0000   0.2155
 -13.500  -1.3466   0.01781   0.01286  -0.0213  1.0000  0.0172  -9.5773   0.0000   0.2182
 -13.000  -1.3180   0.01702   0.01200  -0.0169  1.0000  0.0182  -9.0487   0.0000   0.2220
 -12.500  -1.2884   0.01642   0.01140  -0.0125  1.0000  0.0193  -8.5194   0.0000   0.2259
 -12.000  -1.2587   0.01602   0.01096  -0.0079  1.0000  0.0202  -8.0009   0.0000   0.2301
 -11.500  -1.2311   0.01566   0.01055  -0.0027  1.0000  0.0208  -7.5095   0.0000   0.2349
 -10.500  -1.1204   0.01411   0.00895  -0.0045  0.9969  0.0232  -6.2800   0.0000   0.2345
 -10.000  -1.0602   0.01353   0.00833  -0.0063  0.9955  0.0242  -5.6819   0.0000   0.2332
  -9.500  -1.0016   0.01291   0.00767  -0.0077  0.9933  0.0251  -5.1596   0.0000   0.2322
  -9.000  -0.9439   0.01207   0.00680  -0.0089  0.9907  0.0266  -4.6860   0.0000   0.2309
  -8.500  -0.8814   0.01149   0.00621  -0.0110  0.9891  0.0279  -4.2066   0.0000   0.2284
  -8.000  -0.8185   0.01097   0.00566  -0.0132  0.9874  0.0288  -3.7649   0.0000   0.2254
  -7.500  -0.7647   0.01030   0.00496  -0.0132  0.9816  0.0304  -3.4014   0.0000   0.2247
  -7.000  -0.7114   0.00978   0.00443  -0.0130  0.9754  0.0319  -3.0847   0.0000   0.2241
  -6.500  -0.6603   0.00936   0.00398  -0.0122  0.9675  0.0332  -2.8098   0.0000   0.2244
  -6.000  -0.6099   0.00899   0.00358  -0.0111  0.9587  0.0344  -2.5552   0.0000   0.2249
  -5.500  -0.5596   0.00856   0.00315  -0.0101  0.9488  0.0377  -2.3115   0.0000   0.2255
  -5.000  -0.5081   0.00819   0.00280  -0.0093  0.9385  0.0433  -2.0699   0.0000   0.2256
  -4.500  -0.4570   0.00773   0.00245  -0.0085  0.9280  0.0663  -1.8373   0.0000   0.2257
  -4.000  -0.4047   0.00737   0.00217  -0.0079  0.9162  0.0891  -1.6129   0.0000   0.2251
  -3.500  -0.3525   0.00697   0.00190  -0.0072  0.9041  0.1259  -1.4057   0.0000   0.2242
  -3.000  -0.3009   0.00652   0.00166  -0.0065  0.8911  0.1839  -1.2068   0.0000   0.2232
  -2.500  -0.2496   0.00604   0.00143  -0.0058  0.8773  0.2592  -1.0267   0.0000   0.2218
  -2.000  -0.2027   0.00524   0.00116  -0.0043  0.8624  0.4165  -0.8632   0.0000   0.2240
  -1.500  -0.1555   0.00455   0.00095  -0.0027  0.8448  0.5688  -0.7050   0.0000   0.2279
  -1.000  -0.1045   0.00425   0.00085  -0.0017  0.8194  0.6478  -0.5473   0.0000   0.2293
  -0.500  -0.0524   0.00410   0.00080  -0.0008  0.7890  0.7069  -0.4255   0.0000   0.2296
   0.000  -0.0000   0.00404   0.00078   0.0000  0.7557  0.7557  -0.3382   0.0000   0.4884
   0.500   0.0524   0.00410   0.00080   0.0008  0.7069  0.7890  -0.4255   0.0000   0.2296
   1.000   0.1045   0.00425   0.00085   0.0017  0.6478  0.8194  -0.5473   0.0000   0.2293
   1.500   0.1555   0.00455   0.00095   0.0027  0.5688  0.8448  -0.7050   0.0000   0.2279
   2.000   0.2027   0.00524   0.00116   0.0043  0.4165  0.8624  -0.8633   0.0000   0.2240
   2.500   0.2496   0.00604   0.00143   0.0058  0.2592  0.8773  -1.0267   0.0000   0.2219
   3.000   0.3009   0.00652   0.00166   0.0065  0.1839  0.8911  -1.2069   0.0000   0.2232
   3.500   0.3526   0.00697   0.00190   0.0072  0.1258  0.9041  -1.4057   0.0000   0.2242
   4.000   0.4047   0.00737   0.00217   0.0078  0.0891  0.9162  -1.6130   0.0000   0.2251
   4.500   0.4570   0.00773   0.00245   0.0085  0.0663  0.9280  -1.8374   0.0000   0.2257
   5.000   0.5081   0.00819   0.00280   0.0093  0.0433  0.9385  -2.0701   0.0000   0.2256
   5.500   0.5597   0.00856   0.00315   0.0101  0.0377  0.9488  -2.3117   0.0000   0.2256
   6.000   0.6100   0.00899   0.00358   0.0111  0.0344  0.9587  -2.5554   0.0000   0.2250
   6.500   0.6604   0.00936   0.00398   0.0122  0.0332  0.9675  -2.8100   0.0000   0.2244
   7.000   0.7115   0.00978   0.00443   0.0130  0.0319  0.9754  -3.0850   0.0000   0.2241
   7.500   0.7648   0.01030   0.00496   0.0132  0.0304  0.9816  -3.4017   0.0000   0.2247
   8.000   0.8186   0.01097   0.00566   0.0131  0.0288  0.9874  -3.7653   0.0000   0.2254
   8.500   0.8816   0.01149   0.00621   0.0110  0.0279  0.9891  -4.2070   0.0000   0.2285
   9.000   0.9440   0.01207   0.00680   0.0089  0.0266  0.9908  -4.6866   0.0000   0.2310
   9.500   1.0017   0.01291   0.00767   0.0076  0.0251  0.9933  -5.1601   0.0000   0.2322
  10.000   1.0603   0.01353   0.00833   0.0063  0.0242  0.9956  -5.6828   0.0000   0.2333
  10.500   1.1206   0.01411   0.00895   0.0045  0.0232  0.9969  -6.2811   0.0000   0.2345
  11.000   1.1801   0.01471   0.00956   0.0028  0.0222  0.9986  -6.9111   0.0000   0.2354
  11.500   1.2310   0.01566   0.01055   0.0027  0.0208  1.0000  -7.5087   0.0000   0.2349
  12.000   1.2586   0.01601   0.01096   0.0079  0.0202  1.0000  -8.0004   0.0000   0.2301
  12.500   1.2884   0.01642   0.01140   0.0125  0.0193  1.0000  -8.5198   0.0000   0.2259
  13.000   1.3184   0.01702   0.01200   0.0169  0.0182  1.0000  -9.0509   0.0000   0.2220
  13.500   1.3472   0.01781   0.01286   0.0212  0.0172  1.0000  -9.5810   0.0000   0.2183
  14.000   1.3811   0.01859   0.01371   0.0242  0.0162  1.0000  -10.1592   0.0000   0.2156
  14.500   1.4121   0.01969   0.01484   0.0273  0.0149  1.0000  -10.7268   0.0000   0.2129
  15.000   1.4426   0.02085   0.01609   0.0302  0.0140  1.0000  -11.3010   0.0000   0.2104
  15.500   1.4701   0.02225   0.01756   0.0332  0.0130  1.0000  -11.8643   0.0000   0.2079
  16.000   1.4925   0.02406   0.01947   0.0363  0.0120  1.0000  -12.3916   0.0000   0.2051
  16.500   1.5137   0.02602   0.02156   0.0391  0.0113  1.0000  -12.9407   0.0000   0.2026
  17.000   1.5288   0.02857   0.02422   0.0419  0.0106  1.0000  -13.4426   0.0000   0.1999
  17.500   1.5364   0.03192   0.02771   0.0445  0.0099  1.0000  -13.8753   0.0000   0.1973
  18.000   1.5456   0.03539   0.03136   0.0461  0.0096  1.0000  -14.3282   0.0000   0.1953
  18.500   1.5474   0.03987   0.03602   0.0470  0.0093  1.0000  -14.7092   0.0000   0.1935
  19.000   1.5402   0.04579   0.04212   0.0468  0.0089  1.0000  -14.9926   0.0000   0.1922
  19.500   1.5220   0.05382   0.05037   0.0447  0.0087  1.0000  -15.1463   0.0000   0.1918
  20.000   1.4867   0.06537   0.06219   0.0397  0.0085  1.0000  -15.0795   0.0000   0.1929
  20.500   1.4233   0.08296   0.08013   0.0302  0.0085  1.0000  -14.6090   0.0000   0.1968
  21.000   1.2632   0.11941   0.11716   0.0102  0.0091  1.0000  -12.7144   0.0000   0.2086
  21.500   1.0610   0.16910   0.16736  -0.0198  0.0097  1.0000  -9.6476   0.0000   0.2347
  22.000   1.0118   0.19017   0.18861  -0.0335  0.0094  1.0000  -8.6711   0.0000   0.2485
  22.500   0.9802   0.20845   0.20700  -0.0455  0.0088  1.0000  -7.8372   0.0000   0.2613
  24.500   0.9202   0.28918   0.28788  -0.0886  0.0047  1.0000  -2.3517   0.0000   0.3129
  25.000   0.9359   0.29474   0.29345  -0.0934  0.0043  1.0000  -2.4158   0.0000   0.3153
  25.500   0.9515   0.29969   0.29841  -0.0981  0.0041  1.0000  -2.5287   0.0000   0.3173
  26.000   0.9667   0.30418   0.30290  -0.1028  0.0040  1.0000  -2.6786   0.0000   0.3191
  26.500   0.9809   0.30984   0.30856  -0.1077  0.0039  1.0000  -2.6738   0.0000   0.3213
  27.000   0.9963   0.31890   0.31762  -0.1135  0.0034  1.0000  -2.3002   0.0000   0.3247
  27.500   1.0109   0.32396   0.32269  -0.1185  0.0032  1.0000  -2.3738   0.0000   0.3267
  28.000   1.0252   0.32856   0.32730  -0.1234  0.0030  1.0000  -2.4853   0.0000   0.3285
  28.500   1.0389   0.33269   0.33144  -0.1284  0.0030  1.0000  -2.6393   0.0000   0.3300
  29.000   1.0526   0.33893   0.33768  -0.1337  0.0029  1.0000  -2.5328   0.0000   0.3323
  29.500   1.0678   0.34647   0.34523  -0.1393  0.0025  1.0000  -2.2744   0.0000   0.3346
  30.000   1.0812   0.35129   0.35005  -0.1445  0.0023  1.0000  -2.3287   0.0000   0.3363
  30.500   1.0941   0.35572   0.35449  -0.1498  0.0022  1.0000  -2.4246   0.0000   0.3379
  31.000   1.1064   0.35977   0.35856  -0.1551  0.0021  1.0000  -2.5474   0.0000   0.3394
  31.500   1.1179   0.36350   0.36230  -0.1602  0.0021  1.0000  -2.6840   0.0000   0.3408
  32.000   1.1329   0.37189   0.37069  -0.1661  0.0019  1.0000  -2.2893   0.0000   0.3431
  32.500   1.1450   0.37669   0.37550  -0.1715  0.0017  1.0000  -2.2979   0.0000   0.3446
  33.000   1.1564   0.38104   0.37986  -0.1770  0.0016  1.0000  -2.3640   0.0000   0.3461
  33.500   1.1673   0.38505   0.38389  -0.1825  0.0015  1.0000  -2.4536   0.0000   0.3475
  34.000   1.1775   0.38873   0.38757  -0.1880  0.0014  1.0000  -2.5663   0.0000   0.3488


