xflr5 v6.33

 Calculated polar for: NACA 0012 v1

 1 1 Reynolds number fixed          Mach number fixed         

 xtrf =   1.000 (top)        1.000 (bottom)
 Mach =   0.000     Re =     3.500 e 6     Ncrit =   9.000

  alpha     CL        CD       CDp       Cm    Top Xtr Bot Xtr   Cpmin    Chinge    XCp    
 ------- -------- --------- --------- -------- ------- ------- -------- --------- ---------
 -26.500  -1.1311   0.26225   0.26122   0.1188  1.0000  0.0060  -7.7818   0.0000   0.3111
 -26.000  -1.1372   0.25053   0.24942   0.1092  1.0000  0.0064  -8.3246   0.0000   0.3027
 -25.500  -1.1423   0.23969   0.23850   0.1001  1.0000  0.0067  -8.7385   0.0000   0.2950
 -25.000  -1.1446   0.23005   0.22877   0.0918  1.0000  0.0069  -8.9904   0.0000   0.2885
 -24.500  -1.1460   0.22089   0.21956   0.0839  1.0000  0.0072  -9.1692   0.0000   0.2826
 -24.000  -1.1544   0.21004   0.20865   0.0748  1.0000  0.0075  -9.4631   0.0000   0.2751
 -23.500  -1.1705   0.19750   0.19601   0.0646  1.0000  0.0077  -9.8545   0.0000   0.2664
 -23.000  -1.1976   0.18285   0.18123   0.0530  1.0000  0.0079  -10.3678   0.0000   0.2563
 -22.500  -1.2506   0.16319   0.16137   0.0381  1.0000  0.0080  -11.2063   0.0000   0.2434
 -22.000  -1.3423   0.13723   0.13510   0.0198  1.0000  0.0079  -12.4301   0.0000   0.2285
 -21.500  -1.4523   0.10999   0.10749   0.0029  1.0000  0.0078  -13.6505   0.0000   0.2170
 -21.000  -1.5472   0.08717   0.08432  -0.0095  1.0000  0.0077  -14.5091   0.0000   0.2102
 -20.500  -1.6140   0.06992   0.06678  -0.0183  1.0000  0.0077  -14.9643   0.0000   0.2065
 -20.000  -1.6560   0.05718   0.05380  -0.0243  1.0000  0.0078  -15.1071   0.0000   0.2046
 -19.500  -1.6795   0.04768   0.04411  -0.0282  1.0000  0.0079  -15.0340   0.0000   0.2038
 -19.000  -1.6891   0.04055   0.03680  -0.0305  1.0000  0.0080  -14.8074   0.0000   0.2039
 -18.500  -1.6890   0.03510   0.03120  -0.0315  1.0000  0.0082  -14.4787   0.0000   0.2046
 -18.000  -1.6819   0.03091   0.02687  -0.0312  1.0000  0.0083  -14.0809   0.0000   0.2059
 -17.500  -1.6691   0.02770   0.02354  -0.0299  1.0000  0.0084  -13.6307   0.0000   0.2077
 -17.000  -1.6539   0.02506   0.02078  -0.0278  1.0000  0.0086  -13.1669   0.0000   0.2099
 -16.500  -1.6400   0.02263   0.01824  -0.0245  1.0000  0.0090  -12.7365   0.0000   0.2129
 -16.000  -1.6188   0.02093   0.01645  -0.0210  1.0000  0.0093  -12.2457   0.0000   0.2158
 -15.500  -1.5935   0.01961   0.01506  -0.0173  1.0000  0.0097  -11.7300   0.0000   0.2189
 -15.000  -1.5623   0.01854   0.01392  -0.0141  1.0000  0.0100  -11.1821   0.0000   0.2216
 -14.500  -1.5236   0.01759   0.01291  -0.0121  1.0000  0.0102  -10.5965   0.0000   0.2237
 -14.000  -1.4851   0.01648   0.01174  -0.0100  1.0000  0.0109  -10.0330   0.0000   0.2258
 -13.500  -1.4426   0.01558   0.01081  -0.0084  1.0000  0.0115  -9.4508   0.0000   0.2276
 -13.000  -1.3976   0.01483   0.01001  -0.0070  1.0000  0.0120  -8.8680   0.0000   0.2292
 -12.500  -1.3524   0.01402   0.00917  -0.0057  1.0000  0.0127  -8.3033   0.0000   0.2308
 -12.000  -1.3060   0.01328   0.00842  -0.0044  1.0000  0.0135  -7.7643   0.0000   0.2324
 -11.500  -1.2582   0.01269   0.00779  -0.0033  1.0000  0.0142  -7.2356   0.0000   0.2339
 -11.000  -1.2119   0.01201   0.00711  -0.0019  1.0000  0.0154  -6.7325   0.0000   0.2358
 -10.500  -1.1657   0.01149   0.00658  -0.0002  1.0000  0.0164  -6.2418   0.0000   0.2378
 -10.000  -1.1219   0.01093   0.00601   0.0020  1.0000  0.0179  -5.7792   0.0000   0.2405
  -9.500  -1.0782   0.01046   0.00554   0.0043  1.0000  0.0192  -5.3412   0.0000   0.2433
  -9.000  -1.0158   0.00994   0.00503   0.0025  0.9986  0.0214  -4.8502   0.0000   0.2424
  -8.500  -0.9527   0.00943   0.00455   0.0006  0.9970  0.0240  -4.3757   0.0000   0.2412
  -8.000  -0.8889   0.00894   0.00409  -0.0014  0.9953  0.0276  -3.9281   0.0000   0.2395
  -7.500  -0.8255   0.00848   0.00367  -0.0032  0.9926  0.0322  -3.5118   0.0000   0.2377
  -7.000  -0.7666   0.00807   0.00330  -0.0040  0.9858  0.0378  -3.1311   0.0000   0.2368
  -6.500  -0.7117   0.00770   0.00297  -0.0038  0.9747  0.0448  -2.7930   0.0000   0.2372
  -6.000  -0.6594   0.00735   0.00266  -0.0030  0.9585  0.0543  -2.4812   0.0000   0.2384
  -5.500  -0.6065   0.00702   0.00236  -0.0022  0.9385  0.0670  -2.1912   0.0000   0.2397
  -5.000  -0.5529   0.00672   0.00208  -0.0017  0.9140  0.0840  -1.9228   0.0000   0.2407
  -4.500  -0.4988   0.00643   0.00181  -0.0012  0.8843  0.1069  -1.6749   0.0000   0.2416
  -4.000  -0.4444   0.00616   0.00157  -0.0009  0.8497  0.1361  -1.4490   0.0000   0.2424
  -3.500  -0.3896   0.00592   0.00136  -0.0006  0.8104  0.1715  -1.2451   0.0000   0.2431
  -2.500  -0.2794   0.00552   0.00104  -0.0002  0.7231  0.2564  -0.9063   0.0000   0.2443
  -2.000  -0.2239   0.00537   0.00092  -0.0001  0.6771  0.3025  -0.7699   0.0000   0.2448
  -1.500  -0.1681   0.00525   0.00083  -0.0000  0.6308  0.3496  -0.6545   0.0000   0.2451
  -1.000  -0.1122   0.00517   0.00077  -0.0000  0.5843  0.3968  -0.5587   0.0000   0.2454
  -0.500  -0.0561   0.00512   0.00073   0.0000  0.5376  0.4440  -0.4795   0.0000   0.2455
   0.000  -0.0000   0.00511   0.00072  -0.0000  0.4909  0.4909  -0.4130   0.0000   0.4089
   0.500   0.0561   0.00512   0.00073  -0.0000  0.4440  0.5376  -0.4795   0.0000   0.2455
   1.000   0.1122   0.00517   0.00077   0.0000  0.3968  0.5843  -0.5587   0.0000   0.2454
   1.500   0.1681   0.00525   0.00083   0.0000  0.3496  0.6308  -0.6545   0.0000   0.2451
   2.000   0.2239   0.00537   0.00092   0.0001  0.3025  0.6771  -0.7699   0.0000   0.2448
   2.500   0.2794   0.00552   0.00104   0.0002  0.2564  0.7231  -0.9063   0.0000   0.2444
   3.000   0.3346   0.00570   0.00118   0.0004  0.2122  0.7680  -1.0649   0.0000   0.2438
   3.500   0.3896   0.00592   0.00136   0.0006  0.1715  0.8104  -1.2451   0.0000   0.2432
   4.000   0.4444   0.00616   0.00157   0.0009  0.1361  0.8497  -1.4490   0.0000   0.2424
   4.500   0.4988   0.00643   0.00181   0.0013  0.1069  0.8843  -1.6750   0.0000   0.2416
   5.000   0.5529   0.00672   0.00208   0.0018  0.0839  0.9139  -1.9229   0.0000   0.2407
   5.500   0.6066   0.00702   0.00236   0.0024  0.0670  0.9385  -2.1913   0.0000   0.2397
   6.000   0.6594   0.00735   0.00266   0.0031  0.0543  0.9585  -2.4813   0.0000   0.2385
   6.500   0.7118   0.00770   0.00297   0.0040  0.0448  0.9747  -2.7932   0.0000   0.2372
   7.000   0.7666   0.00807   0.00330   0.0043  0.0378  0.9858  -3.1313   0.0000   0.2368
   7.500   0.8256   0.00848   0.00367   0.0035  0.0322  0.9926  -3.5119   0.0000   0.2377
   8.000   0.8889   0.00894   0.00409   0.0017  0.0276  0.9953  -3.9283   0.0000   0.2395
   8.500   0.9527   0.00943   0.00455  -0.0003  0.0240  0.9970  -4.3759   0.0000   0.2412
   9.000   1.0159   0.00994   0.00503  -0.0022  0.0214  0.9986  -4.8505   0.0000   0.2425
   9.500   1.0783   0.01046   0.00554  -0.0039  0.0192  1.0000  -5.3415   0.0000   0.2433
  10.000   1.1218   0.01092   0.00601  -0.0015  0.0179  1.0000  -5.7789   0.0000   0.2404
  10.500   1.1657   0.01149   0.00658   0.0007  0.0164  1.0000  -6.2417   0.0000   0.2378
  11.000   1.2119   0.01201   0.00711   0.0024  0.0154  1.0000  -6.7326   0.0000   0.2358
  11.500   1.2582   0.01269   0.00779   0.0039  0.0142  1.0000  -7.2360   0.0000   0.2339
  12.000   1.3061   0.01328   0.00842   0.0051  0.0135  1.0000  -7.7649   0.0000   0.2324
  12.500   1.3525   0.01402   0.00917   0.0064  0.0127  1.0000  -8.3040   0.0000   0.2308
  13.000   1.3978   0.01483   0.01001   0.0078  0.0120  1.0000  -8.8690   0.0000   0.2292
  13.500   1.4429   0.01558   0.01081   0.0092  0.0115  1.0000  -9.4520   0.0000   0.2276
  14.000   1.4854   0.01648   0.01174   0.0108  0.0109  1.0000  -10.0344   0.0000   0.2258
  14.500   1.5239   0.01760   0.01291   0.0130  0.0102  1.0000  -10.5985   0.0000   0.2237
  15.000   1.5627   0.01854   0.01392   0.0150  0.0100  1.0000  -11.1845   0.0000   0.2217
  15.500   1.5941   0.01961   0.01506   0.0182  0.0097  1.0000  -11.7336   0.0000   0.2190
  16.000   1.6194   0.02093   0.01645   0.0220  0.0093  1.0000  -12.2500   0.0000   0.2159
  16.500   1.6407   0.02263   0.01823   0.0255  0.0090  1.0000  -12.7414   0.0000   0.2129
  17.000   1.6547   0.02505   0.02077   0.0288  0.0086  1.0000  -13.1724   0.0000   0.2100
  17.500   1.6702   0.02768   0.02352   0.0310  0.0084  1.0000  -13.6386   0.0000   0.2078
  18.000   1.6831   0.03088   0.02684   0.0323  0.0083  1.0000  -14.0902   0.0000   0.2060
  18.500   1.6904   0.03506   0.03115   0.0326  0.0082  1.0000  -14.4897   0.0000   0.2047
  19.000   1.6907   0.04049   0.03674   0.0317  0.0080  1.0000  -14.8204   0.0000   0.2040
  19.500   1.6813   0.04760   0.04402   0.0294  0.0079  1.0000  -15.0494   0.0000   0.2040
  20.000   1.6580   0.05708   0.05370   0.0254  0.0078  1.0000  -15.1250   0.0000   0.2047
  20.500   1.6163   0.06979   0.06665   0.0194  0.0077  1.0000  -14.9848   0.0000   0.2066
  21.000   1.5496   0.08703   0.08418   0.0106  0.0077  1.0000  -14.5313   0.0000   0.2103
  21.500   1.4548   0.10985   0.10735  -0.0019  0.0078  1.0000  -13.6737   0.0000   0.2171
  22.000   1.3443   0.13719   0.13506  -0.0190  0.0079  1.0000  -12.4489   0.0000   0.2286
  22.500   1.2520   0.16332   0.16150  -0.0375  0.0080  1.0000  -11.2176   0.0000   0.2435
  23.000   1.1988   0.18301   0.18139  -0.0526  0.0079  1.0000  -10.3756   0.0000   0.2565
  23.500   1.1718   0.19771   0.19622  -0.0642  0.0077  1.0000  -9.8615   0.0000   0.2665
  24.000   1.1556   0.21036   0.20897  -0.0745  0.0075  1.0000  -9.4681   0.0000   0.2753
  24.500   1.1473   0.22130   0.21997  -0.0836  0.0072  1.0000  -9.1753   0.0000   0.2827
  25.000   1.1459   0.23054   0.22926  -0.0915  0.0068  1.0000  -8.9954   0.0000   0.2887
  25.500   1.1437   0.24026   0.23906  -0.0999  0.0067  1.0000  -8.7442   0.0000   0.2951
  26.000   1.1386   0.25122   0.25011  -0.1091  0.0064  1.0000  -8.3303   0.0000   0.3028
  26.500   1.1327   0.26304   0.26201  -0.1187  0.0060  1.0000  -7.7901   0.0000   0.3113


