xflr5 v6.33

 Calculated polar for: NACA 0012-64

 1 1 Reynolds number fixed          Mach number fixed         

 xtrf =   1.000 (top)        1.000 (bottom)
 Mach =   0.000     Re =     1.800 e 6     Ncrit =   9.000

  alpha     CL        CD       CDp       Cm    Top Xtr Bot Xtr   Cpmin    Chinge    XCp    
 ------- -------- --------- --------- -------- ------- ------- -------- --------- ---------
 -22.500  -0.9622   0.21300   0.21157   0.0480  1.0000  0.0088  -7.3846   0.0000   0.2652
 -22.000  -1.0050   0.19112   0.18954   0.0339  1.0000  0.0096  -8.5474   0.0000   0.2492
 -21.500  -1.0497   0.17110   0.16935   0.0208  1.0000  0.0099  -9.4568   0.0000   0.2359
 -21.000  -1.1656   0.13773   0.13567   0.0000  1.0000  0.0098  -11.3006   0.0000   0.2168
 -20.500  -1.3999   0.08665   0.08388  -0.0286  1.0000  0.0089  -14.3118   0.0000   0.1976
 -20.000  -1.4709   0.06749   0.06435  -0.0390  1.0000  0.0088  -14.8921   0.0000   0.1931
 -19.500  -1.5071   0.05558   0.05217  -0.0444  1.0000  0.0089  -14.9766   0.0000   0.1916
 -19.000  -1.5260   0.04726   0.04363  -0.0469  1.0000  0.0092  -14.8397   0.0000   0.1918
 -18.500  -1.5336   0.04114   0.03731  -0.0474  1.0000  0.0095  -14.5665   0.0000   0.1929
 -18.000  -1.5323   0.03650   0.03248  -0.0467  1.0000  0.0098  -14.1961   0.0000   0.1946
 -17.500  -1.5276   0.03257   0.02837  -0.0451  1.0000  0.0102  -13.7910   0.0000   0.1967
 -17.000  -1.5207   0.02913   0.02479  -0.0426  1.0000  0.0109  -13.3651   0.0000   0.1993
 -16.500  -1.5052   0.02659   0.02213  -0.0400  1.0000  0.0116  -12.8608   0.0000   0.2019
 -16.000  -1.4839   0.02461   0.02002  -0.0373  1.0000  0.0122  -12.3143   0.0000   0.2043
 -15.500  -1.4630   0.02268   0.01800  -0.0341  1.0000  0.0133  -11.8011   0.0000   0.2071
 -15.000  -1.4354   0.02128   0.01652  -0.0312  1.0000  0.0143  -11.2388   0.0000   0.2097
 -14.500  -1.4066   0.02000   0.01513  -0.0281  1.0000  0.0153  -10.6814   0.0000   0.2123
 -14.000  -1.3745   0.01897   0.01408  -0.0252  1.0000  0.0165  -10.1050   0.0000   0.2148
 -13.500  -1.3402   0.01818   0.01322  -0.0223  1.0000  0.0174  -9.5261   0.0000   0.2174
 -13.000  -1.3119   0.01730   0.01227  -0.0180  1.0000  0.0185  -9.0019   0.0000   0.2211
 -12.500  -1.2813   0.01678   0.01174  -0.0138  1.0000  0.0196  -8.4663   0.0000   0.2249
 -12.000  -1.2508   0.01636   0.01128  -0.0093  1.0000  0.0205  -7.9448   0.0000   0.2289
 -11.500  -1.2234   0.01598   0.01085  -0.0041  1.0000  0.0210  -7.4564   0.0000   0.2337
 -10.500  -1.1224   0.01444   0.00924  -0.0040  0.9972  0.0235  -6.2827   0.0000   0.2350
 -10.000  -1.0621   0.01386   0.00862  -0.0057  0.9958  0.0244  -5.6845   0.0000   0.2338
  -9.500  -1.0047   0.01303   0.00773  -0.0070  0.9936  0.0256  -5.1715   0.0000   0.2329
  -9.000  -0.9461   0.01231   0.00700  -0.0084  0.9910  0.0269  -4.6899   0.0000   0.2316
  -8.500  -0.8838   0.01174   0.00641  -0.0104  0.9892  0.0282  -4.2114   0.0000   0.2292
  -8.000  -0.8200   0.01121   0.00586  -0.0127  0.9878  0.0290  -3.7657   0.0000   0.2259
  -7.500  -0.7654   0.01045   0.00507  -0.0131  0.9826  0.0309  -3.4012   0.0000   0.2249
  -7.000  -0.7089   0.00993   0.00453  -0.0136  0.9779  0.0323  -3.0744   0.0000   0.2232
  -6.500  -0.6581   0.00950   0.00407  -0.0127  0.9697  0.0335  -2.8004   0.0000   0.2235
  -6.000  -0.6083   0.00908   0.00362  -0.0116  0.9606  0.0352  -2.5515   0.0000   0.2242
  -5.500  -0.5578   0.00867   0.00322  -0.0106  0.9512  0.0384  -2.3053   0.0000   0.2247
  -5.000  -0.5066   0.00828   0.00285  -0.0097  0.9411  0.0444  -2.0655   0.0000   0.2248
  -4.500  -0.4558   0.00781   0.00250  -0.0088  0.9308  0.0686  -1.8339   0.0000   0.2249
  -4.000  -0.4036   0.00745   0.00221  -0.0081  0.9193  0.0913  -1.6103   0.0000   0.2243
  -3.500  -0.3520   0.00702   0.00193  -0.0074  0.9071  0.1324  -1.4044   0.0000   0.2237
  -3.000  -0.3004   0.00657   0.00169  -0.0067  0.8943  0.1910  -1.2058   0.0000   0.2226
  -2.500  -0.2496   0.00605   0.00145  -0.0059  0.8806  0.2732  -1.0265   0.0000   0.2215
  -2.000  -0.2033   0.00520   0.00117  -0.0043  0.8656  0.4403  -0.8642   0.0000   0.2243
  -1.500  -0.1558   0.00455   0.00097  -0.0027  0.8487  0.5835  -0.7054   0.0000   0.2280
  -1.000  -0.1046   0.00427   0.00088  -0.0017  0.8243  0.6589  -0.5473   0.0000   0.2292
  -0.500  -0.0527   0.00412   0.00082  -0.0008  0.7948  0.7167  -0.4257   0.0000   0.2307
   0.000   0.0000   0.00407   0.00081  -0.0000  0.7610  0.7609  -0.3382   0.0000   0.4978
   0.500   0.0527   0.00412   0.00082   0.0008  0.7167  0.7948  -0.4257   0.0000   0.2307
   1.000   0.1046   0.00427   0.00088   0.0017  0.6589  0.8243  -0.5473   0.0000   0.2292
   1.500   0.1558   0.00455   0.00097   0.0027  0.5835  0.8487  -0.7054   0.0000   0.2280
   2.000   0.2033   0.00520   0.00117   0.0043  0.4403  0.8656  -0.8642   0.0000   0.2243
   2.500   0.2496   0.00605   0.00145   0.0059  0.2732  0.8806  -1.0266   0.0000   0.2215
   3.000   0.3004   0.00657   0.00169   0.0067  0.1910  0.8943  -1.2058   0.0000   0.2226
   3.500   0.3520   0.00702   0.00193   0.0074  0.1323  0.9071  -1.4045   0.0000   0.2237
   4.000   0.4037   0.00745   0.00221   0.0081  0.0913  0.9193  -1.6104   0.0000   0.2244
   4.500   0.4558   0.00781   0.00250   0.0088  0.0686  0.9308  -1.8340   0.0000   0.2250
   5.000   0.5066   0.00828   0.00285   0.0097  0.0444  0.9411  -2.0657   0.0000   0.2248
   5.500   0.5579   0.00867   0.00322   0.0105  0.0384  0.9512  -2.3054   0.0000   0.2247
   6.000   0.6084   0.00908   0.00362   0.0115  0.0352  0.9606  -2.5517   0.0000   0.2243
   6.500   0.6582   0.00950   0.00407   0.0127  0.0335  0.9697  -2.8006   0.0000   0.2235
   7.000   0.7090   0.00993   0.00453   0.0136  0.0323  0.9779  -3.0747   0.0000   0.2232
   7.500   0.7655   0.01045   0.00506   0.0130  0.0309  0.9826  -3.4015   0.0000   0.2249
   8.000   0.8201   0.01121   0.00586   0.0127  0.0290  0.9878  -3.7660   0.0000   0.2259
   8.500   0.8840   0.01174   0.00641   0.0104  0.0282  0.9893  -4.2119   0.0000   0.2292
   9.000   0.9462   0.01231   0.00700   0.0083  0.0269  0.9910  -4.6905   0.0000   0.2316
   9.500   1.0048   0.01303   0.00773   0.0069  0.0256  0.9937  -5.1721   0.0000   0.2329
  10.000   1.0623   0.01386   0.00862   0.0057  0.0244  0.9958  -5.6854   0.0000   0.2338
  10.500   1.1226   0.01444   0.00924   0.0039  0.0235  0.9973  -6.2838   0.0000   0.2350
  11.000   1.1820   0.01505   0.00987   0.0023  0.0224  0.9990  -6.9132   0.0000   0.2359
  11.500   1.2233   0.01598   0.01084   0.0042  0.0210  1.0000  -7.4559   0.0000   0.2337
  12.000   1.2508   0.01636   0.01128   0.0093  0.0205  1.0000  -7.9445   0.0000   0.2289
  12.500   1.2815   0.01678   0.01174   0.0137  0.0196  1.0000  -8.4670   0.0000   0.2249
  13.000   1.3123   0.01730   0.01227   0.0179  0.0185  1.0000  -9.0047   0.0000   0.2212
  13.500   1.3408   0.01818   0.01322   0.0222  0.0174  1.0000  -9.5300   0.0000   0.2175
  14.000   1.3752   0.01897   0.01408   0.0251  0.0165  1.0000  -10.1096   0.0000   0.2149
  14.500   1.4074   0.01999   0.01513   0.0279  0.0153  1.0000  -10.6865   0.0000   0.2124
  15.000   1.4363   0.02128   0.01651   0.0310  0.0143  1.0000  -11.2451   0.0000   0.2098
  15.500   1.4641   0.02267   0.01799   0.0339  0.0133  1.0000  -11.8083   0.0000   0.2073
  16.000   1.4851   0.02460   0.02001   0.0371  0.0122  1.0000  -12.3228   0.0000   0.2045
  16.500   1.5065   0.02658   0.02211   0.0398  0.0116  1.0000  -12.8707   0.0000   0.2020
  17.000   1.5221   0.02911   0.02477   0.0424  0.0109  1.0000  -13.3761   0.0000   0.1995
  17.500   1.5290   0.03256   0.02836   0.0448  0.0102  1.0000  -13.8021   0.0000   0.1969
  18.000   1.5343   0.03646   0.03243   0.0464  0.0098  1.0000  -14.2120   0.0000   0.1948
  18.500   1.5357   0.04108   0.03725   0.0471  0.0095  1.0000  -14.5843   0.0000   0.1931
  19.000   1.5283   0.04719   0.04356   0.0466  0.0092  1.0000  -14.8591   0.0000   0.1920
  19.500   1.5095   0.05549   0.05208   0.0441  0.0089  1.0000  -14.9985   0.0000   0.1919
  20.000   1.4735   0.06740   0.06426   0.0387  0.0088  1.0000  -14.9157   0.0000   0.1933
  20.500   1.4027   0.08655   0.08378   0.0282  0.0088  1.0000  -14.3375   0.0000   0.1979
  21.000   1.1676   0.13780   0.13574  -0.0004  0.0098  1.0000  -11.3154   0.0000   0.2172
  21.500   1.0510   0.17141   0.16965  -0.0212  0.0099  1.0000  -9.4601   0.0000   0.2363
  22.000   1.0063   0.19157   0.18999  -0.0343  0.0096  1.0000  -8.5473   0.0000   0.2496
  22.500   0.9639   0.21351   0.21207  -0.0484  0.0088  1.0000  -7.3927   0.0000   0.2655
  28.000   1.0253   0.32922   0.32792  -0.1235  0.0031  1.0000  -2.4004   0.0000   0.3286
  28.500   1.0392   0.33354   0.33225  -0.1285  0.0030  1.0000  -2.5323   0.0000   0.3303
  29.000   1.0523   0.33751   0.33623  -0.1333  0.0029  1.0000  -2.6971   0.0000   0.3317
  29.500   1.0676   0.34643   0.34515  -0.1393  0.0027  1.0000  -2.2604   0.0000   0.3346
  30.000   1.0813   0.35162   0.35035  -0.1445  0.0024  1.0000  -2.2777   0.0000   0.3364
  30.500   1.0943   0.35627   0.35501  -0.1498  0.0023  1.0000  -2.3486   0.0000   0.3380
  31.000   1.1069   0.36054   0.35929  -0.1551  0.0022  1.0000  -2.4488   0.0000   0.3396
  31.500   1.1187   0.36438   0.36314  -0.1604  0.0021  1.0000  -2.5810   0.0000   0.3410
  32.000   1.1308   0.36956   0.36833  -0.1658  0.0021  1.0000  -2.5440   0.0000   0.3427
  32.500   1.1450   0.37675   0.37552  -0.1715  0.0018  1.0000  -2.2754   0.0000   0.3446
  33.000   1.1567   0.38133   0.38012  -0.1770  0.0017  1.0000  -2.3146   0.0000   0.3461
  33.500   1.1677   0.38554   0.38434  -0.1825  0.0015  1.0000  -2.3817   0.0000   0.3475
  34.000   1.1782   0.38941   0.38822  -0.1880  0.0015  1.0000  -2.4729   0.0000   0.3489
  34.500   1.1879   0.39290   0.39172  -0.1936  0.0014  1.0000  -2.5908   0.0000   0.3502
  35.000   1.1976   0.39706   0.39589  -0.1992  0.0014  1.0000  -2.6129   0.0000   0.3515
  35.500   1.2101   0.40361   0.40245  -0.2049  0.0013  1.0000  -2.3530   0.0000   0.3531
  36.000   1.2201   0.40818   0.40703  -0.2106  0.0011  1.0000  -2.3060   0.0000   0.3544
  36.500   1.2292   0.41206   0.41092  -0.2163  0.0010  1.0000  -2.3403   0.0000   0.3557
  37.000   1.2375   0.41565   0.41452  -0.2220  0.0009  1.0000  -2.4083   0.0000   0.3569
  37.500   1.2452   0.41894   0.41782  -0.2277  0.0009  1.0000  -2.4969   0.0000   0.3580
  38.000   1.2520   0.42182   0.42072  -0.2335  0.0009  1.0000  -2.6073   0.0000   0.3591
  38.500   1.2599   0.42604   0.42495  -0.2393  0.0008  1.0000  -2.5576   0.0000   0.3604
  39.000   1.2694   0.43135   0.43027  -0.2451  0.0008  1.0000  -2.3989   0.0000   0.3615
  39.500   1.2768   0.43545   0.43438  -0.2509  0.0007  1.0000  -2.3847   0.0000   0.3626
  40.000   1.2830   0.43874   0.43768  -0.2567  0.0006  1.0000  -2.4265   0.0000   0.3636
  40.500   1.2885   0.44188   0.44084  -0.2626  0.0005  1.0000  -2.4877   0.0000   0.3646


