xflr5 v6.33

 Calculated polar for: NACA 0012-64

 1 1 Reynolds number fixed          Mach number fixed         

 xtrf =   1.000 (top)        1.000 (bottom)
 Mach =   0.000     Re =     3.400 e 6     Ncrit =   9.000

  alpha     CL        CD       CDp       Cm    Top Xtr Bot Xtr   Cpmin    Chinge    XCp    
 ------- -------- --------- --------- -------- ------- ------- -------- --------- ---------
 -26.000  -1.0074   0.27079   0.26978   0.0921  1.0000  0.0043  -6.8769   0.0000   0.2995
 -25.500  -0.9988   0.26316   0.26214   0.0860  1.0000  0.0047  -6.9658   0.0000   0.2952
 -25.000  -0.9995   0.25180   0.25071   0.0779  1.0000  0.0051  -7.4068   0.0000   0.2878
 -24.500  -0.9934   0.24357   0.24246   0.0715  1.0000  0.0056  -7.5036   0.0000   0.2828
 -24.000  -0.9874   0.23539   0.23427   0.0652  1.0000  0.0060  -7.5676   0.0000   0.2780
 -23.500  -0.9907   0.22433   0.22315   0.0573  1.0000  0.0064  -7.8795   0.0000   0.2706
 -23.000  -0.9967   0.21268   0.21144   0.0490  1.0000  0.0068  -8.2001   0.0000   0.2628
 -22.500  -1.0448   0.19014   0.18877   0.0339  1.0000  0.0074  -9.4123   0.0000   0.2464
 -22.000  -1.2923   0.12866   0.12662  -0.0053  1.0000  0.0066  -13.6414   0.0000   0.2099
 -21.500  -1.5329   0.07902   0.07623  -0.0331  1.0000  0.0062  -16.7145   0.0000   0.1940
 -21.000  -1.5861   0.06399   0.06092  -0.0407  1.0000  0.0062  -17.0334   0.0000   0.1916
 -20.500  -1.6134   0.05393   0.05063  -0.0448  1.0000  0.0063  -16.9871   0.0000   0.1910
 -20.000  -1.6268   0.04653   0.04305  -0.0467  1.0000  0.0064  -16.7528   0.0000   0.1915
 -19.500  -1.6309   0.04086   0.03722  -0.0472  1.0000  0.0065  -16.4005   0.0000   0.1927
 -19.000  -1.6355   0.03573   0.03191  -0.0463  1.0000  0.0068  -16.0500   0.0000   0.1945
 -18.500  -1.6339   0.03161   0.02764  -0.0446  1.0000  0.0072  -15.6279   0.0000   0.1968
 -18.000  -1.6248   0.02843   0.02434  -0.0423  1.0000  0.0075  -15.1455   0.0000   0.1993
 -17.500  -1.6094   0.02593   0.02174  -0.0397  1.0000  0.0079  -14.6075   0.0000   0.2017
 -16.500  -1.5708   0.02187   0.01747  -0.0335  1.0000  0.0089  -13.4853   0.0000   0.2071
 -16.000  -1.5469   0.02028   0.01580  -0.0302  1.0000  0.0095  -12.8957   0.0000   0.2099
 -15.500  -1.5181   0.01903   0.01447  -0.0272  1.0000  0.0100  -12.2984   0.0000   0.2125
 -15.000  -1.4908   0.01772   0.01309  -0.0237  1.0000  0.0111  -11.7269   0.0000   0.2155
 -14.500  -1.4597   0.01671   0.01204  -0.0204  1.0000  0.0121  -11.1335   0.0000   0.2183
 -14.000  -1.4301   0.01578   0.01108  -0.0164  1.0000  0.0135  -10.5625   0.0000   0.2217
 -13.500  -1.3998   0.01510   0.01036  -0.0122  1.0000  0.0145  -9.9947   0.0000   0.2253
 -13.000  -1.3729   0.01448   0.00970  -0.0071  1.0000  0.0156  -9.4629   0.0000   0.2296
 -12.500  -1.3343   0.01387   0.00909  -0.0044  0.9995  0.0169  -8.8690   0.0000   0.2323
 -12.000  -1.2779   0.01329   0.00848  -0.0054  0.9982  0.0176  -8.1842   0.0000   0.2321
 -11.500  -1.2215   0.01259   0.00778  -0.0065  0.9968  0.0191  -7.5257   0.0000   0.2318
 -11.000  -1.1625   0.01208   0.00728  -0.0080  0.9958  0.0202  -6.8725   0.0000   0.2310
 -10.500  -1.1028   0.01166   0.00686  -0.0096  0.9946  0.0209  -6.2394   0.0000   0.2299
 -10.000  -1.0467   0.01099   0.00617  -0.0104  0.9920  0.0222  -5.6685   0.0000   0.2293
  -9.500  -0.9892   0.01050   0.00568  -0.0113  0.9889  0.0232  -5.1527   0.0000   0.2284
  -9.000  -0.9352   0.01009   0.00528  -0.0114  0.9836  0.0240  -4.6850   0.0000   0.2282
  -8.500  -0.8838   0.00975   0.00492  -0.0108  0.9768  0.0246  -4.2448   0.0000   0.2288
  -8.000  -0.8351   0.00929   0.00441  -0.0095  0.9687  0.0257  -3.8529   0.0000   0.2301
  -7.500  -0.7851   0.00887   0.00400  -0.0086  0.9599  0.0271  -3.4902   0.0000   0.2311
  -7.000  -0.7333   0.00854   0.00365  -0.0079  0.9511  0.0282  -3.1680   0.0000   0.2316
  -6.500  -0.6806   0.00823   0.00331  -0.0075  0.9421  0.0288  -2.8876   0.0000   0.2320
  -6.000  -0.6279   0.00791   0.00297  -0.0070  0.9322  0.0300  -2.6219   0.0000   0.2322
  -5.500  -0.5748   0.00760   0.00264  -0.0065  0.9215  0.0323  -2.3635   0.0000   0.2323
  -5.000  -0.5208   0.00734   0.00238  -0.0063  0.9100  0.0340  -2.1086   0.0000   0.2319
  -4.500  -0.4671   0.00704   0.00210  -0.0060  0.8974  0.0417  -1.8662   0.0000   0.2316
  -3.500  -0.3600   0.00641   0.00162  -0.0053  0.8711  0.0856  -1.4224   0.0000   0.2301
  -3.000  -0.3061   0.00611   0.00143  -0.0050  0.8567  0.1173  -1.2179   0.0000   0.2286
  -2.500  -0.2529   0.00576   0.00124  -0.0046  0.8410  0.1696  -1.0333   0.0000   0.2268
  -2.000  -0.1998   0.00547   0.00109  -0.0042  0.8196  0.2257  -0.8589   0.0000   0.2243
  -1.500  -0.1512   0.00488   0.00088  -0.0030  0.7891  0.3630  -0.6990   0.0000   0.2258
  -1.000  -0.1021   0.00439   0.00073  -0.0018  0.7562  0.4929  -0.5448   0.0000   0.2280
  -0.500  -0.0511   0.00413   0.00065  -0.0009  0.7170  0.5850  -0.4246   0.0000   0.2276
   0.000   0.0000   0.00405   0.00062  -0.0000  0.6589  0.6589  -0.3385   0.0000   0.4739
   0.500   0.0511   0.00413   0.00065   0.0009  0.5851  0.7170  -0.4246   0.0000   0.2276
   1.000   0.1021   0.00439   0.00073   0.0018  0.4929  0.7562  -0.5448   0.0000   0.2280
   1.500   0.1512   0.00488   0.00088   0.0030  0.3630  0.7891  -0.6990   0.0000   0.2258
   2.000   0.1999   0.00547   0.00109   0.0042  0.2257  0.8196  -0.8589   0.0000   0.2243
   2.500   0.2529   0.00576   0.00124   0.0046  0.1695  0.8410  -1.0333   0.0000   0.2268
   3.000   0.3061   0.00611   0.00143   0.0050  0.1173  0.8567  -1.2180   0.0000   0.2286
   3.500   0.3600   0.00641   0.00162   0.0053  0.0856  0.8711  -1.4225   0.0000   0.2301
   4.500   0.4671   0.00704   0.00210   0.0059  0.0417  0.8974  -1.8663   0.0000   0.2316
   5.000   0.5208   0.00734   0.00238   0.0063  0.0340  0.9100  -2.1088   0.0000   0.2320
   5.500   0.5749   0.00760   0.00264   0.0065  0.0323  0.9215  -2.3637   0.0000   0.2323
   6.000   0.6280   0.00791   0.00297   0.0070  0.0300  0.9321  -2.6221   0.0000   0.2322
   6.500   0.6807   0.00823   0.00331   0.0074  0.0288  0.9421  -2.8878   0.0000   0.2320
   7.000   0.7334   0.00854   0.00365   0.0079  0.0282  0.9510  -3.1683   0.0000   0.2317
   7.500   0.7853   0.00887   0.00400   0.0085  0.0271  0.9599  -3.4906   0.0000   0.2311
   8.000   0.8353   0.00929   0.00442   0.0095  0.0257  0.9687  -3.8534   0.0000   0.2301
   8.500   0.8840   0.00975   0.00492   0.0107  0.0246  0.9768  -4.2454   0.0000   0.2288
   9.000   0.9354   0.01009   0.00527   0.0114  0.0240  0.9835  -4.6856   0.0000   0.2283
   9.500   0.9894   0.01050   0.00568   0.0113  0.0232  0.9889  -5.1533   0.0000   0.2284
  10.000   1.0469   0.01099   0.00617   0.0103  0.0222  0.9920  -5.6693   0.0000   0.2293
  10.500   1.1030   0.01166   0.00686   0.0095  0.0209  0.9947  -6.2401   0.0000   0.2299
  11.000   1.1627   0.01208   0.00728   0.0080  0.0202  0.9958  -6.8737   0.0000   0.2310
  11.500   1.2217   0.01259   0.00778   0.0065  0.0191  0.9968  -7.5271   0.0000   0.2318
  12.000   1.2782   0.01329   0.00848   0.0054  0.0176  0.9982  -8.1857   0.0000   0.2321
  12.500   1.3346   0.01387   0.00909   0.0043  0.0169  0.9995  -8.8707   0.0000   0.2323
  13.000   1.3728   0.01447   0.00970   0.0071  0.0156  1.0000  -9.4624   0.0000   0.2296
  13.500   1.3999   0.01510   0.01036   0.0122  0.0145  1.0000  -9.9956   0.0000   0.2253
  14.000   1.4307   0.01578   0.01108   0.0163  0.0135  1.0000  -10.5660   0.0000   0.2217
  14.500   1.4604   0.01671   0.01203   0.0202  0.0121  1.0000  -11.1381   0.0000   0.2184
  15.000   1.4916   0.01772   0.01309   0.0235  0.0111  1.0000  -11.7321   0.0000   0.2156
  15.500   1.5190   0.01903   0.01446   0.0270  0.0100  1.0000  -12.3049   0.0000   0.2126
  16.000   1.5479   0.02028   0.01579   0.0301  0.0095  1.0000  -12.9031   0.0000   0.2101
  16.500   1.5719   0.02187   0.01747   0.0333  0.0089  1.0000  -13.4938   0.0000   0.2073
  17.000   1.5902   0.02393   0.01963   0.0367  0.0081  1.0000  -14.0390   0.0000   0.2043
  17.500   1.6109   0.02591   0.02172   0.0394  0.0079  1.0000  -14.6195   0.0000   0.2019
  18.000   1.6264   0.02840   0.02432   0.0420  0.0075  1.0000  -15.1589   0.0000   0.1994
  18.500   1.6357   0.03158   0.02761   0.0443  0.0072  1.0000  -15.6431   0.0000   0.1970
  19.000   1.6374   0.03569   0.03188   0.0461  0.0068  1.0000  -16.0667   0.0000   0.1947
  19.500   1.6333   0.04078   0.03713   0.0468  0.0065  1.0000  -16.4232   0.0000   0.1929
  20.000   1.6295   0.04643   0.04294   0.0464  0.0064  1.0000  -16.7784   0.0000   0.1918
  20.500   1.6164   0.05379   0.05049   0.0444  0.0063  1.0000  -17.0159   0.0000   0.1913
  21.000   1.5894   0.06382   0.06074   0.0404  0.0062  1.0000  -17.0665   0.0000   0.1918
  21.500   1.5366   0.07879   0.07600   0.0328  0.0062  1.0000  -16.7530   0.0000   0.1943
  22.000   1.2934   0.12894   0.12690   0.0047  0.0066  1.0000  -13.6420   0.0000   0.2103
  22.500   1.0460   0.19063   0.18926  -0.0344  0.0074  1.0000  -9.4102   0.0000   0.2468
  23.000   0.9982   0.21325   0.21201  -0.0495  0.0068  1.0000  -8.2041   0.0000   0.2632
  23.500   0.9923   0.22500   0.22382  -0.0578  0.0064  1.0000  -7.8843   0.0000   0.2710
  24.000   0.9892   0.23609   0.23497  -0.0657  0.0060  1.0000  -7.5739   0.0000   0.2783
  24.500   0.9952   0.24440   0.24330  -0.0720  0.0056  1.0000  -7.5105   0.0000   0.2832
  25.000   1.0012   0.25283   0.25174  -0.0785  0.0051  1.0000  -7.4081   0.0000   0.2882
  25.500   1.0007   0.26427   0.26325  -0.0865  0.0046  1.0000  -6.9718   0.0000   0.2956
  26.000   1.0094   0.27200   0.27100  -0.0926  0.0043  1.0000  -6.8877   0.0000   0.2998


