xflr5 v6.33

 Calculated polar for: NACA 0012-64

 1 1 Reynolds number fixed          Mach number fixed         

 xtrf =   1.000 (top)        1.000 (bottom)
 Mach =   0.000     Re =     3.600 e 6     Ncrit =   9.000

  alpha     CL        CD       CDp       Cm    Top Xtr Bot Xtr   Cpmin    Chinge    XCp    
 ------- -------- --------- --------- -------- ------- ------- -------- --------- ---------
 -26.000  -1.0116   0.26888   0.26788   0.0912  1.0000  0.0043  -7.0967   0.0000   0.2979
 -25.500  -1.0022   0.26175   0.26073   0.0853  1.0000  0.0046  -7.1241   0.0000   0.2941
 -25.000  -1.0000   0.25168   0.25061   0.0779  1.0000  0.0050  -7.4285   0.0000   0.2877
 -24.500  -0.9951   0.24293   0.24183   0.0712  1.0000  0.0055  -7.5698   0.0000   0.2823
 -24.000  -0.9888   0.23495   0.23385   0.0650  1.0000  0.0059  -7.6171   0.0000   0.2776
 -23.500  -0.9919   0.22400   0.22284   0.0571  1.0000  0.0063  -7.9163   0.0000   0.2703
 -23.000  -0.9997   0.21184   0.21060   0.0485  1.0000  0.0066  -8.2792   0.0000   0.2621
 -22.500  -1.0523   0.18829   0.18692   0.0327  1.0000  0.0072  -9.5741   0.0000   0.2449
 -22.000  -1.4566   0.09907   0.09662  -0.0221  1.0000  0.0061  -16.0170   0.0000   0.1988
 -21.500  -1.5585   0.07497   0.07211  -0.0353  1.0000  0.0060  -17.0495   0.0000   0.1931
 -21.000  -1.6043   0.06142   0.05831  -0.0418  1.0000  0.0061  -17.2599   0.0000   0.1913
 -20.500  -1.6289   0.05196   0.04864  -0.0454  1.0000  0.0062  -17.1724   0.0000   0.1910
 -20.000  -1.6407   0.04496   0.04146  -0.0469  1.0000  0.0063  -16.9128   0.0000   0.1917
 -19.500  -1.6436   0.03957   0.03590  -0.0470  1.0000  0.0064  -16.5432   0.0000   0.1930
 -19.000  -1.6406   0.03526   0.03145  -0.0462  1.0000  0.0065  -16.1037   0.0000   0.1947
 -18.500  -1.6396   0.03113   0.02716  -0.0443  1.0000  0.0070  -15.6882   0.0000   0.1971
 -18.000  -1.6310   0.02793   0.02385  -0.0418  1.0000  0.0074  -15.2094   0.0000   0.1996
 -17.500  -1.6161   0.02544   0.02125  -0.0391  1.0000  0.0078  -14.6730   0.0000   0.2022
 -17.000  -1.5956   0.02347   0.01918  -0.0363  1.0000  0.0081  -14.0934   0.0000   0.2047
 -16.500  -1.5748   0.02161   0.01722  -0.0331  1.0000  0.0086  -13.5231   0.0000   0.2075
 -16.000  -1.5514   0.01999   0.01552  -0.0297  1.0000  0.0093  -12.9378   0.0000   0.2103
 -15.500  -1.5231   0.01872   0.01418  -0.0265  1.0000  0.0099  -12.3422   0.0000   0.2130
 -15.000  -1.4943   0.01751   0.01291  -0.0232  1.0000  0.0109  -11.7575   0.0000   0.2159
 -14.500  -1.4639   0.01647   0.01183  -0.0197  1.0000  0.0119  -11.1682   0.0000   0.2188
 -14.000  -1.4343   0.01559   0.01090  -0.0157  1.0000  0.0131  -10.5956   0.0000   0.2222
 -13.500  -1.4042   0.01489   0.01018  -0.0114  1.0000  0.0143  -10.0293   0.0000   0.2258
 -13.000  -1.3777   0.01431   0.00956  -0.0062  1.0000  0.0153  -9.4980   0.0000   0.2303
 -12.500  -1.3333   0.01364   0.00889  -0.0048  0.9993  0.0167  -8.8679   0.0000   0.2320
 -12.000  -1.2769   0.01306   0.00828  -0.0058  0.9979  0.0175  -8.1833   0.0000   0.2318
 -11.500  -1.2202   0.01238   0.00760  -0.0069  0.9966  0.0189  -7.5233   0.0000   0.2315
 -11.000  -1.1615   0.01186   0.00709  -0.0084  0.9956  0.0201  -6.8715   0.0000   0.2306
 -10.500  -1.1024   0.01143   0.00667  -0.0098  0.9943  0.0208  -6.2416   0.0000   0.2297
 -10.000  -1.0461   0.01083   0.00604  -0.0106  0.9914  0.0219  -5.6679   0.0000   0.2291
  -9.500  -0.9893   0.01032   0.00554  -0.0114  0.9881  0.0230  -5.1561   0.0000   0.2283
  -9.000  -0.9378   0.00993   0.00515  -0.0108  0.9815  0.0238  -4.6986   0.0000   0.2288
  -8.500  -0.8870   0.00959   0.00480  -0.0101  0.9743  0.0245  -4.2603   0.0000   0.2296
  -8.000  -0.8370   0.00921   0.00439  -0.0091  0.9665  0.0251  -3.8593   0.0000   0.2306
  -7.500  -0.7872   0.00876   0.00392  -0.0081  0.9576  0.0268  -3.4990   0.0000   0.2317
  -7.000  -0.7352   0.00843   0.00357  -0.0075  0.9486  0.0279  -3.1759   0.0000   0.2323
  -6.500  -0.6823   0.00812   0.00324  -0.0071  0.9394  0.0287  -2.8953   0.0000   0.2325
  -6.000  -0.6290   0.00784   0.00294  -0.0067  0.9295  0.0293  -2.6245   0.0000   0.2326
  -5.500  -0.5758   0.00751   0.00260  -0.0063  0.9191  0.0318  -2.3675   0.0000   0.2327
  -5.000  -0.5218   0.00726   0.00234  -0.0061  0.9072  0.0338  -2.1125   0.0000   0.2324
  -4.500  -0.4679   0.00698   0.00207  -0.0058  0.8945  0.0397  -1.8684   0.0000   0.2320
  -4.000  -0.4148   0.00661   0.00181  -0.0054  0.8816  0.0639  -1.6371   0.0000   0.2317
  -3.500  -0.3605   0.00636   0.00160  -0.0052  0.8678  0.0824  -1.4236   0.0000   0.2305
  -3.000  -0.3066   0.00607   0.00141  -0.0049  0.8530  0.1123  -1.2189   0.0000   0.2290
  -2.500  -0.2533   0.00574   0.00123  -0.0045  0.8368  0.1620  -1.0339   0.0000   0.2273
  -2.000  -0.2002   0.00545   0.00108  -0.0041  0.8140  0.2170  -0.8594   0.0000   0.2248
  -1.500  -0.1508   0.00493   0.00089  -0.0030  0.7822  0.3407  -0.6985   0.0000   0.2256
  -1.000  -0.1018   0.00442   0.00073  -0.0018  0.7488  0.4754  -0.5444   0.0000   0.2276
  -0.500  -0.0509   0.00415   0.00065  -0.0009  0.7089  0.5708  -0.4244   0.0000   0.2271
   0.000   0.0000   0.00411   0.00062  -0.0000  0.6436  0.6436  -0.3385   0.0000   0.4709
   0.500   0.0509   0.00415   0.00065   0.0009  0.5708  0.7089  -0.4244   0.0000   0.2271
   1.000   0.1018   0.00442   0.00073   0.0018  0.4755  0.7488  -0.5444   0.0000   0.2276
   1.500   0.1509   0.00493   0.00089   0.0030  0.3407  0.7822  -0.6985   0.0000   0.2256
   2.000   0.2002   0.00545   0.00108   0.0041  0.2170  0.8140  -0.8595   0.0000   0.2248
   2.500   0.2533   0.00574   0.00123   0.0045  0.1620  0.8368  -1.0340   0.0000   0.2273
   3.000   0.3066   0.00607   0.00141   0.0049  0.1123  0.8530  -1.2190   0.0000   0.2290
   3.500   0.3605   0.00636   0.00160   0.0052  0.0824  0.8678  -1.4237   0.0000   0.2305
   4.000   0.4149   0.00661   0.00181   0.0054  0.0639  0.8816  -1.6372   0.0000   0.2317
   4.500   0.4679   0.00698   0.00207   0.0058  0.0397  0.8945  -1.8685   0.0000   0.2320
   5.000   0.5219   0.00726   0.00234   0.0060  0.0338  0.9071  -2.1127   0.0000   0.2325
   5.500   0.5759   0.00751   0.00260   0.0063  0.0318  0.9190  -2.3677   0.0000   0.2328
   6.000   0.6291   0.00784   0.00294   0.0067  0.0293  0.9295  -2.6247   0.0000   0.2327
   6.500   0.6824   0.00812   0.00324   0.0071  0.0287  0.9394  -2.8955   0.0000   0.2326
   7.000   0.7354   0.00843   0.00357   0.0075  0.0279  0.9486  -3.1762   0.0000   0.2323
   7.500   0.7873   0.00876   0.00392   0.0081  0.0268  0.9575  -3.4994   0.0000   0.2318
   8.000   0.8371   0.00921   0.00439   0.0091  0.0251  0.9665  -3.8598   0.0000   0.2306
   8.500   0.8872   0.00959   0.00480   0.0101  0.0245  0.9743  -4.2610   0.0000   0.2297
   9.000   0.9380   0.00993   0.00515   0.0108  0.0238  0.9815  -4.6993   0.0000   0.2289
   9.500   0.9894   0.01032   0.00554   0.0113  0.0230  0.9881  -5.1568   0.0000   0.2284
  10.000   1.0462   0.01083   0.00604   0.0105  0.0219  0.9914  -5.6686   0.0000   0.2291
  10.500   1.1025   0.01143   0.00667   0.0097  0.0208  0.9943  -6.2424   0.0000   0.2297
  11.000   1.1617   0.01186   0.00709   0.0083  0.0201  0.9956  -6.8726   0.0000   0.2307
  11.500   1.2205   0.01238   0.00760   0.0069  0.0189  0.9966  -7.5246   0.0000   0.2315
  12.000   1.2772   0.01306   0.00828   0.0058  0.0175  0.9980  -8.1848   0.0000   0.2319
  12.500   1.3336   0.01364   0.00889   0.0047  0.0167  0.9993  -8.8696   0.0000   0.2320
  13.000   1.3775   0.01431   0.00956   0.0062  0.0153  1.0000  -9.4972   0.0000   0.2303
  13.500   1.4044   0.01489   0.01018   0.0114  0.0143  1.0000  -10.0301   0.0000   0.2259
  14.000   1.4348   0.01559   0.01090   0.0156  0.0131  1.0000  -10.5989   0.0000   0.2223
  14.500   1.4646   0.01647   0.01183   0.0196  0.0119  1.0000  -11.1727   0.0000   0.2189
  15.000   1.4951   0.01751   0.01291   0.0230  0.0108  1.0000  -11.7627   0.0000   0.2160
  15.500   1.5240   0.01872   0.01418   0.0264  0.0099  1.0000  -12.3486   0.0000   0.2131
  16.000   1.5524   0.01998   0.01552   0.0295  0.0093  1.0000  -12.9450   0.0000   0.2105
  16.500   1.5759   0.02161   0.01722   0.0328  0.0086  1.0000  -13.5314   0.0000   0.2076
  17.000   1.5969   0.02346   0.01917   0.0361  0.0080  1.0000  -14.1038   0.0000   0.2049
  17.500   1.6175   0.02543   0.02124   0.0389  0.0077  1.0000  -14.6847   0.0000   0.2024
  18.000   1.6326   0.02791   0.02383   0.0416  0.0074  1.0000  -15.2225   0.0000   0.1998
  18.500   1.6413   0.03110   0.02714   0.0440  0.0070  1.0000  -15.7031   0.0000   0.1973
  19.000   1.6424   0.03523   0.03141   0.0459  0.0065  1.0000  -16.1201   0.0000   0.1949
  19.500   1.6460   0.03950   0.03583   0.0467  0.0064  1.0000  -16.5653   0.0000   0.1932
  20.000   1.6433   0.04487   0.04136   0.0466  0.0063  1.0000  -16.9374   0.0000   0.1919
  20.500   1.6317   0.05184   0.04851   0.0450  0.0062  1.0000  -17.1997   0.0000   0.1912
  21.000   1.6074   0.06128   0.05816   0.0415  0.0061  1.0000  -17.2908   0.0000   0.1915
  21.500   1.5620   0.07478   0.07193   0.0350  0.0060  1.0000  -17.0846   0.0000   0.1933
  22.000   1.4608   0.09878   0.09633   0.0219  0.0061  1.0000  -16.0622   0.0000   0.1991
  22.500   1.0534   0.18877   0.18740  -0.0332  0.0072  1.0000  -9.5705   0.0000   0.2454
  23.000   1.0013   0.21237   0.21114  -0.0490  0.0066  1.0000  -8.2861   0.0000   0.2624
  23.500   0.9935   0.22463   0.22347  -0.0576  0.0063  1.0000  -7.9216   0.0000   0.2706
  24.000   0.9906   0.23568   0.23458  -0.0654  0.0059  1.0000  -7.6237   0.0000   0.2779
  24.500   0.9969   0.24380   0.24270  -0.0717  0.0055  1.0000  -7.5771   0.0000   0.2827
  25.000   1.0017   0.25267   0.25160  -0.0784  0.0050  1.0000  -7.4326   0.0000   0.2881
  25.500   1.0040   0.26286   0.26185  -0.0858  0.0046  1.0000  -7.1292   0.0000   0.2944
  26.000   1.0136   0.27006   0.26906  -0.0917  0.0043  1.0000  -7.1065   0.0000   0.2983


