xflr5 v6.33

 Calculated polar for: NACA 0012-64

 1 1 Reynolds number fixed          Mach number fixed         

 xtrf =   1.000 (top)        1.000 (bottom)
 Mach =   0.000     Re =     3.900 e 6     Ncrit =   9.000

  alpha     CL        CD       CDp       Cm    Top Xtr Bot Xtr   Cpmin    Chinge    XCp    
 ------- -------- --------- --------- -------- ------- ------- -------- --------- ---------
 -26.000  -1.0149   0.26745   0.26646   0.0905  1.0000  0.0043  -7.2675   0.0000   0.2968
 -25.500  -1.0081   0.25933   0.25832   0.0840  1.0000  0.0046  -7.3925   0.0000   0.2920
 -25.000  -1.0009   0.25143   0.25039   0.0777  1.0000  0.0050  -7.4692   0.0000   0.2874
 -24.500  -0.9974   0.24222   0.24114   0.0708  1.0000  0.0053  -7.6533   0.0000   0.2817
 -24.000  -0.9907   0.23440   0.23331   0.0646  1.0000  0.0058  -7.6808   0.0000   0.2771
 -23.500  -0.9941   0.22339   0.22226   0.0567  1.0000  0.0062  -7.9825   0.0000   0.2697
 -23.000  -1.0044   0.21054   0.20933   0.0477  1.0000  0.0065  -8.4017   0.0000   0.2609
 -22.500  -1.0627   0.18570   0.18432   0.0311  1.0000  0.0069  -9.7955   0.0000   0.2429
 -22.000  -1.5102   0.08995   0.08736  -0.0272  1.0000  0.0058  -16.7560   0.0000   0.1961
 -21.500  -1.5859   0.07080   0.06787  -0.0374  1.0000  0.0058  -17.4045   0.0000   0.1922
 -21.000  -1.6257   0.05850   0.05533  -0.0430  1.0000  0.0059  -17.5252   0.0000   0.1909
 -20.500  -1.6472   0.04972   0.04635  -0.0459  1.0000  0.0060  -17.3910   0.0000   0.1910
 -20.000  -1.6577   0.04309   0.03956  -0.0470  1.0000  0.0062  -17.1085   0.0000   0.1920
 -19.500  -1.6598   0.03798   0.03430  -0.0468  1.0000  0.0063  -16.7231   0.0000   0.1935
 -19.000  -1.6549   0.03395   0.03013  -0.0457  1.0000  0.0064  -16.2598   0.0000   0.1953
 -18.500  -1.6463   0.03056   0.02660  -0.0439  1.0000  0.0066  -15.7590   0.0000   0.1974
 -18.000  -1.6386   0.02735   0.02327  -0.0413  1.0000  0.0071  -15.2862   0.0000   0.2001
 -17.500  -1.6243   0.02484   0.02066  -0.0384  1.0000  0.0075  -14.7545   0.0000   0.2028
 -17.000  -1.6042   0.02288   0.01860  -0.0354  1.0000  0.0079  -14.1760   0.0000   0.2054
 -16.000  -1.5572   0.01962   0.01517  -0.0289  1.0000  0.0090  -12.9913   0.0000   0.2109
 -15.500  -1.5295   0.01834   0.01382  -0.0257  1.0000  0.0097  -12.3987   0.0000   0.2136
 -15.000  -1.4989   0.01726   0.01268  -0.0225  1.0000  0.0104  -11.7963   0.0000   0.2164
 -14.500  -1.4693   0.01618   0.01156  -0.0188  1.0000  0.0115  -11.2135   0.0000   0.2194
 -14.000  -1.4395   0.01536   0.01070  -0.0147  1.0000  0.0126  -10.6372   0.0000   0.2229
 -13.500  -1.4103   0.01462   0.00994  -0.0103  1.0000  0.0140  -10.0761   0.0000   0.2267
 -13.000  -1.3843   0.01411   0.00939  -0.0049  1.0000  0.0147  -9.5451   0.0000   0.2312
 -12.500  -1.3319   0.01334   0.00862  -0.0053  0.9989  0.0164  -8.8663   0.0000   0.2316
 -12.000  -1.2756   0.01274   0.00802  -0.0063  0.9976  0.0174  -8.1820   0.0000   0.2314
 -11.500  -1.2186   0.01211   0.00738  -0.0074  0.9964  0.0186  -7.5194   0.0000   0.2310
 -11.000  -1.1600   0.01157   0.00685  -0.0088  0.9954  0.0198  -6.8699   0.0000   0.2302
 -10.500  -1.1019   0.01114   0.00642  -0.0100  0.9937  0.0207  -6.2451   0.0000   0.2295
 -10.000  -1.0455   0.01065   0.00591  -0.0108  0.9904  0.0213  -5.6671   0.0000   0.2289
  -9.500  -0.9910   0.01010   0.00537  -0.0110  0.9861  0.0227  -5.1677   0.0000   0.2287
  -9.000  -0.9411   0.00971   0.00498  -0.0102  0.9789  0.0236  -4.7159   0.0000   0.2296
  -8.500  -0.8911   0.00938   0.00463  -0.0092  0.9711  0.0243  -4.2802   0.0000   0.2307
  -8.000  -0.8399   0.00907   0.00431  -0.0085  0.9631  0.0247  -3.8705   0.0000   0.2314
  -7.500  -0.7896   0.00862   0.00383  -0.0076  0.9543  0.0263  -3.5093   0.0000   0.2324
  -7.000  -0.7376   0.00828   0.00347  -0.0070  0.9453  0.0276  -3.1858   0.0000   0.2330
  -6.500  -0.6847   0.00798   0.00315  -0.0066  0.9356  0.0284  -2.9056   0.0000   0.2334
  -6.000  -0.6309   0.00771   0.00287  -0.0063  0.9255  0.0290  -2.6318   0.0000   0.2333
  -5.500  -0.5773   0.00741   0.00255  -0.0060  0.9150  0.0311  -2.3728   0.0000   0.2333
  -5.000  -0.5233   0.00715   0.00228  -0.0057  0.9027  0.0333  -2.1177   0.0000   0.2331
  -4.500  -0.4691   0.00689   0.00203  -0.0055  0.8900  0.0387  -1.8722   0.0000   0.2326
  -4.000  -0.4159   0.00653   0.00177  -0.0051  0.8767  0.0609  -1.6396   0.0000   0.2323
  -3.500  -0.3616   0.00628   0.00157  -0.0049  0.8625  0.0798  -1.4261   0.0000   0.2312
  -2.500  -0.2539   0.00570   0.00121  -0.0044  0.8310  0.1537  -1.0351   0.0000   0.2280
  -2.000  -0.2007   0.00543   0.00106  -0.0039  0.8062  0.2059  -0.8604   0.0000   0.2256
  -1.500  -0.1504   0.00501   0.00089  -0.0030  0.7718  0.3108  -0.6977   0.0000   0.2254
  -1.000  -0.1013   0.00448   0.00073  -0.0019  0.7386  0.4498  -0.5437   0.0000   0.2270
  -0.500  -0.0505   0.00419   0.00064  -0.0010  0.6977  0.5496  -0.4240   0.0000   0.2259
   0.000   0.0000   0.00419   0.00063  -0.0000  0.6210  0.6210  -0.3386   0.0000   0.4649
   0.500   0.0505   0.00419   0.00064   0.0010  0.5496  0.6977  -0.4240   0.0000   0.2259
   1.000   0.1013   0.00448   0.00073   0.0019  0.4498  0.7386  -0.5437   0.0000   0.2270
   1.500   0.1504   0.00501   0.00089   0.0030  0.3108  0.7718  -0.6977   0.0000   0.2254
   2.000   0.2007   0.00543   0.00106   0.0039  0.2059  0.8062  -0.8604   0.0000   0.2257
   2.500   0.2539   0.00570   0.00121   0.0044  0.1537  0.8310  -1.0352   0.0000   0.2280
   3.000   0.3074   0.00603   0.00139   0.0047  0.1055  0.8474  -1.2206   0.0000   0.2297
   3.500   0.3616   0.00628   0.00157   0.0049  0.0798  0.8624  -1.4261   0.0000   0.2312
   4.000   0.4159   0.00653   0.00177   0.0051  0.0609  0.8767  -1.6397   0.0000   0.2323
   4.500   0.4692   0.00689   0.00203   0.0055  0.0387  0.8899  -1.8723   0.0000   0.2326
   5.000   0.5234   0.00715   0.00228   0.0057  0.0333  0.9026  -2.1178   0.0000   0.2331
   5.500   0.5774   0.00741   0.00255   0.0060  0.0311  0.9149  -2.3730   0.0000   0.2334
   6.000   0.6310   0.00771   0.00287   0.0063  0.0290  0.9255  -2.6320   0.0000   0.2334
   6.500   0.6848   0.00798   0.00315   0.0065  0.0284  0.9356  -2.9058   0.0000   0.2334
   7.000   0.7377   0.00828   0.00347   0.0070  0.0276  0.9453  -3.1861   0.0000   0.2331
   7.500   0.7897   0.00862   0.00383   0.0075  0.0263  0.9543  -3.5097   0.0000   0.2325
   8.000   0.8400   0.00907   0.00431   0.0085  0.0247  0.9631  -3.8710   0.0000   0.2315
   8.500   0.8913   0.00938   0.00463   0.0092  0.0243  0.9711  -4.2809   0.0000   0.2307
   9.000   0.9412   0.00972   0.00498   0.0101  0.0236  0.9789  -4.7165   0.0000   0.2297
   9.500   0.9912   0.01010   0.00537   0.0110  0.0227  0.9861  -5.1685   0.0000   0.2287
  10.000   1.0456   0.01065   0.00591   0.0107  0.0213  0.9904  -5.6678   0.0000   0.2289
  10.500   1.1021   0.01113   0.00642   0.0100  0.0207  0.9937  -6.2460   0.0000   0.2295
  11.000   1.1603   0.01156   0.00684   0.0088  0.0198  0.9954  -6.8710   0.0000   0.2303
  11.500   1.2188   0.01211   0.00737   0.0074  0.0186  0.9964  -7.5207   0.0000   0.2311
  12.000   1.2759   0.01274   0.00802   0.0062  0.0174  0.9976  -8.1835   0.0000   0.2315
  12.500   1.3322   0.01334   0.00862   0.0052  0.0164  0.9989  -8.8680   0.0000   0.2317
  13.000   1.3841   0.01410   0.00939   0.0049  0.0147  1.0000  -9.5441   0.0000   0.2312
  13.500   1.4104   0.01462   0.00994   0.0103  0.0140  1.0000  -10.0766   0.0000   0.2267
  14.000   1.4399   0.01536   0.01070   0.0147  0.0126  1.0000  -10.6400   0.0000   0.2229
  14.500   1.4700   0.01618   0.01156   0.0187  0.0115  1.0000  -11.2179   0.0000   0.2195
  15.000   1.4996   0.01726   0.01268   0.0223  0.0103  1.0000  -11.8014   0.0000   0.2165
  15.500   1.5303   0.01834   0.01382   0.0255  0.0097  1.0000  -12.4050   0.0000   0.2138
  16.000   1.5582   0.01962   0.01517   0.0287  0.0090  1.0000  -12.9984   0.0000   0.2110
  16.500   1.5811   0.02127   0.01690   0.0323  0.0082  1.0000  -13.5781   0.0000   0.2081
  17.000   1.6055   0.02287   0.01859   0.0352  0.0079  1.0000  -14.1862   0.0000   0.2055
  17.500   1.6257   0.02483   0.02064   0.0381  0.0075  1.0000  -14.7659   0.0000   0.2029
  18.000   1.6401   0.02733   0.02325   0.0410  0.0071  1.0000  -15.2989   0.0000   0.2003
  18.500   1.6480   0.03054   0.02658   0.0437  0.0066  1.0000  -15.7735   0.0000   0.1976
  19.000   1.6571   0.03390   0.03008   0.0454  0.0064  1.0000  -16.2790   0.0000   0.1955
  19.500   1.6621   0.03792   0.03423   0.0465  0.0063  1.0000  -16.7445   0.0000   0.1937
  20.000   1.6602   0.04301   0.03947   0.0467  0.0062  1.0000  -17.1322   0.0000   0.1922
  20.500   1.6499   0.04961   0.04625   0.0456  0.0060  1.0000  -17.4172   0.0000   0.1913
  21.000   1.6286   0.05837   0.05520   0.0427  0.0059  1.0000  -17.5544   0.0000   0.1912
  21.500   1.5891   0.07065   0.06772   0.0371  0.0058  1.0000  -17.4371   0.0000   0.1925
  22.000   1.5137   0.08977   0.08717   0.0269  0.0058  1.0000  -16.7927   0.0000   0.1964
  22.500   1.0727   0.18397   0.18256  -0.0302  0.0069  1.0000  -9.9740   0.0000   0.2417
  23.000   1.0057   0.21111   0.20991  -0.0482  0.0065  1.0000  -8.4027   0.0000   0.2614
  23.500   0.9957   0.22399   0.22286  -0.0572  0.0062  1.0000  -7.9883   0.0000   0.2701
  24.000   0.9924   0.23512   0.23404  -0.0651  0.0058  1.0000  -7.6875   0.0000   0.2774
  24.500   0.9993   0.24301   0.24193  -0.0713  0.0053  1.0000  -7.6631   0.0000   0.2820
  25.000   1.0027   0.25237   0.25134  -0.0782  0.0050  1.0000  -7.4752   0.0000   0.2878
  25.500   1.0099   0.26040   0.25939  -0.0845  0.0046  1.0000  -7.3975   0.0000   0.2924
  26.000   1.0169   0.26862   0.26764  -0.0910  0.0043  1.0000  -7.2771   0.0000   0.2971
  26.500   1.0274   0.27538   0.27440  -0.0968  0.0039  1.0000  -7.2828   0.0000   0.3005


