xflr5 v6.33

 Calculated polar for: NACA 0012 v1

 1 1 Reynolds number fixed          Mach number fixed         

 xtrf =   1.000 (top)        1.000 (bottom)
 Mach =   0.000     Re =     3.600 e 6     Ncrit =   9.000

  alpha     CL        CD       CDp       Cm    Top Xtr Bot Xtr   Cpmin    Chinge    XCp    
 ------- -------- --------- --------- -------- ------- ------- -------- --------- ---------
 -26.500  -1.1355   0.26059   0.25955   0.1177  1.0000  0.0060  -7.9571   0.0000   0.3095
 -26.000  -1.1394   0.24986   0.24875   0.1087  1.0000  0.0064  -8.4043   0.0000   0.3019
 -25.500  -1.1434   0.23939   0.23821   0.0998  1.0000  0.0067  -8.7730   0.0000   0.2946
 -25.000  -1.1453   0.22993   0.22867   0.0916  1.0000  0.0068  -9.0111   0.0000   0.2883
 -24.500  -1.1475   0.22053   0.21920   0.0836  1.0000  0.0071  -9.2074   0.0000   0.2822
 -24.000  -1.1564   0.20955   0.20816   0.0744  1.0000  0.0074  -9.5104   0.0000   0.2746
 -23.500  -1.1744   0.19656   0.19508   0.0639  1.0000  0.0077  -9.9345   0.0000   0.2655
 -23.000  -1.2067   0.18076   0.17913   0.0514  1.0000  0.0078  -10.5358   0.0000   0.2546
 -22.500  -1.2672   0.15974   0.15789   0.0356  1.0000  0.0079  -11.4715   0.0000   0.2408
 -22.000  -1.3656   0.13287   0.13068   0.0169  1.0000  0.0078  -12.7509   0.0000   0.2261
 -21.500  -1.4731   0.10644   0.10389   0.0008  1.0000  0.0077  -13.9063   0.0000   0.2155
 -21.000  -1.5629   0.08469   0.08180  -0.0109  1.0000  0.0076  -14.6892   0.0000   0.2094
 -20.500  -1.6261   0.06813   0.06496  -0.0192  1.0000  0.0076  -15.0972   0.0000   0.2060
 -20.000  -1.6658   0.05581   0.05241  -0.0249  1.0000  0.0077  -15.2119   0.0000   0.2043
 -19.500  -1.6878   0.04663   0.04303  -0.0286  1.0000  0.0078  -15.1197   0.0000   0.2037
 -19.000  -1.6963   0.03970   0.03594  -0.0308  1.0000  0.0079  -14.8799   0.0000   0.2039
 -18.500  -1.6953   0.03444   0.03053  -0.0315  1.0000  0.0081  -14.5398   0.0000   0.2047
 -18.000  -1.6876   0.03038   0.02634  -0.0311  1.0000  0.0082  -14.1343   0.0000   0.2061
 -17.500  -1.6744   0.02726   0.02310  -0.0297  1.0000  0.0084  -13.6789   0.0000   0.2079
 -17.000  -1.6566   0.02485   0.02058  -0.0276  1.0000  0.0085  -13.1899   0.0000   0.2101
 -16.500  -1.6426   0.02246   0.01807  -0.0242  1.0000  0.0089  -12.7583   0.0000   0.2130
 -16.000  -1.6218   0.02075   0.01627  -0.0206  1.0000  0.0092  -12.2709   0.0000   0.2160
 -15.500  -1.5965   0.01945   0.01490  -0.0169  1.0000  0.0096  -11.7546   0.0000   0.2192
 -15.000  -1.5646   0.01838   0.01377  -0.0138  1.0000  0.0099  -11.2012   0.0000   0.2218
 -14.500  -1.5257   0.01744   0.01277  -0.0118  1.0000  0.0102  -10.6136   0.0000   0.2238
 -14.000  -1.4864   0.01638   0.01165  -0.0098  1.0000  0.0108  -10.0433   0.0000   0.2259
 -13.500  -1.4439   0.01547   0.01071  -0.0082  1.0000  0.0114  -9.4616   0.0000   0.2277
 -13.000  -1.3989   0.01471   0.00991  -0.0069  1.0000  0.0119  -8.8781   0.0000   0.2293
 -12.500  -1.3532   0.01394   0.00911  -0.0056  1.0000  0.0125  -8.3094   0.0000   0.2309
 -12.000  -1.3069   0.01320   0.00834  -0.0043  1.0000  0.0134  -7.7712   0.0000   0.2325
 -11.500  -1.2591   0.01259   0.00772  -0.0032  1.0000  0.0141  -7.2424   0.0000   0.2340
 -11.000  -1.2126   0.01193   0.00705  -0.0017  1.0000  0.0153  -6.7379   0.0000   0.2359
 -10.500  -1.1666   0.01141   0.00652  -0.0000  1.0000  0.0163  -6.2477   0.0000   0.2380
 -10.000  -1.1228   0.01086   0.00596   0.0022  1.0000  0.0178  -5.7845   0.0000   0.2406
  -9.500  -1.0771   0.01040   0.00550   0.0040  0.9999  0.0191  -5.3373   0.0000   0.2431
  -9.000  -1.0148   0.00987   0.00499   0.0023  0.9984  0.0213  -4.8472   0.0000   0.2422
  -8.500  -0.9517   0.00937   0.00451   0.0004  0.9968  0.0240  -4.3726   0.0000   0.2409
  -8.000  -0.8880   0.00889   0.00406  -0.0016  0.9951  0.0274  -3.9255   0.0000   0.2393
  -7.500  -0.8253   0.00843   0.00365  -0.0033  0.9919  0.0319  -3.5116   0.0000   0.2376
  -7.000  -0.7665   0.00803   0.00328  -0.0041  0.9851  0.0374  -3.1312   0.0000   0.2368
  -6.500  -0.7125   0.00766   0.00295  -0.0036  0.9729  0.0443  -2.7954   0.0000   0.2374
  -6.000  -0.6602   0.00731   0.00264  -0.0028  0.9566  0.0538  -2.4834   0.0000   0.2387
  -5.500  -0.6071   0.00699   0.00234  -0.0021  0.9360  0.0661  -2.1928   0.0000   0.2399
  -5.000  -0.5533   0.00670   0.00206  -0.0016  0.9108  0.0827  -1.9239   0.0000   0.2409
  -4.500  -0.4992   0.00641   0.00180  -0.0011  0.8806  0.1053  -1.6757   0.0000   0.2418
  -4.000  -0.4447   0.00615   0.00157  -0.0008  0.8454  0.1341  -1.4496   0.0000   0.2426
  -3.500  -0.3899   0.00591   0.00136  -0.0005  0.8060  0.1692  -1.2455   0.0000   0.2433
  -3.000  -0.3348   0.00569   0.00118  -0.0003  0.7631  0.2096  -1.0653   0.0000   0.2439
  -2.500  -0.2795   0.00551   0.00103  -0.0002  0.7183  0.2532  -0.9065   0.0000   0.2445
  -1.500  -0.1682   0.00525   0.00082  -0.0000  0.6260  0.3459  -0.6546   0.0000   0.2452
  -1.000  -0.1122   0.00517   0.00076   0.0000  0.5797  0.3931  -0.5587   0.0000   0.2455
  -0.500  -0.0561   0.00512   0.00073   0.0000  0.5334  0.4401  -0.4794   0.0000   0.2456
   0.000   0.0000   0.00511   0.00072  -0.0000  0.4869  0.4869  -0.4130   0.0000   0.5126
   0.500   0.0561   0.00512   0.00073  -0.0000  0.4401  0.5334  -0.4794   0.0000   0.2456
   1.000   0.1122   0.00517   0.00076  -0.0000  0.3931  0.5797  -0.5587   0.0000   0.2455
   1.500   0.1682   0.00525   0.00082   0.0000  0.3459  0.6260  -0.6546   0.0000   0.2453
   2.000   0.2239   0.00537   0.00091   0.0001  0.2989  0.6725  -0.7699   0.0000   0.2449
   2.500   0.2795   0.00551   0.00103   0.0002  0.2532  0.7183  -0.9065   0.0000   0.2445
   3.000   0.3349   0.00569   0.00118   0.0003  0.2096  0.7631  -1.0653   0.0000   0.2439
   3.500   0.3899   0.00591   0.00136   0.0006  0.1692  0.8060  -1.2456   0.0000   0.2433
   4.000   0.4447   0.00615   0.00157   0.0008  0.1341  0.8454  -1.4497   0.0000   0.2426
   4.500   0.4992   0.00641   0.00180   0.0012  0.1053  0.8806  -1.6758   0.0000   0.2418
   5.000   0.5534   0.00670   0.00206   0.0017  0.0827  0.9108  -1.9240   0.0000   0.2409
   5.500   0.6072   0.00699   0.00234   0.0022  0.0661  0.9360  -2.1929   0.0000   0.2399
   6.000   0.6602   0.00732   0.00264   0.0030  0.0538  0.9566  -2.4835   0.0000   0.2387
   6.500   0.7125   0.00766   0.00295   0.0038  0.0443  0.9729  -2.7955   0.0000   0.2374
   7.000   0.7665   0.00803   0.00328   0.0043  0.0374  0.9851  -3.1313   0.0000   0.2368
   7.500   0.8254   0.00843   0.00365   0.0036  0.0319  0.9919  -3.5117   0.0000   0.2376
   8.000   0.8880   0.00889   0.00406   0.0019  0.0274  0.9951  -3.9256   0.0000   0.2393
   8.500   0.9517   0.00937   0.00451  -0.0000  0.0240  0.9968  -4.3728   0.0000   0.2409
   9.000   1.0149   0.00987   0.00499  -0.0019  0.0213  0.9984  -4.8474   0.0000   0.2422
   9.500   1.0772   0.01040   0.00550  -0.0036  0.0191  0.9999  -5.3376   0.0000   0.2431
  10.000   1.1227   0.01086   0.00596  -0.0017  0.0178  1.0000  -5.7841   0.0000   0.2406
  10.500   1.1666   0.01141   0.00652   0.0006  0.0163  1.0000  -6.2475   0.0000   0.2380
  11.000   1.2126   0.01193   0.00705   0.0023  0.0153  1.0000  -6.7380   0.0000   0.2359
  11.500   1.2592   0.01259   0.00772   0.0038  0.0141  1.0000  -7.2427   0.0000   0.2341
  12.000   1.3070   0.01320   0.00834   0.0050  0.0134  1.0000  -7.7717   0.0000   0.2325
  12.500   1.3533   0.01394   0.00911   0.0063  0.0125  1.0000  -8.3101   0.0000   0.2309
  13.000   1.3990   0.01471   0.00991   0.0076  0.0119  1.0000  -8.8790   0.0000   0.2293
  13.500   1.4441   0.01547   0.01071   0.0090  0.0114  1.0000  -9.4628   0.0000   0.2277
  14.000   1.4866   0.01638   0.01165   0.0106  0.0107  1.0000  -10.0447   0.0000   0.2259
  14.500   1.5260   0.01744   0.01277   0.0127  0.0102  1.0000  -10.6155   0.0000   0.2239
  15.000   1.5650   0.01838   0.01377   0.0147  0.0099  1.0000  -11.2035   0.0000   0.2219
  15.500   1.5971   0.01945   0.01490   0.0178  0.0096  1.0000  -11.7581   0.0000   0.2192
  16.000   1.6224   0.02075   0.01627   0.0216  0.0092  1.0000  -12.2752   0.0000   0.2161
  16.500   1.6433   0.02246   0.01807   0.0252  0.0089  1.0000  -12.7631   0.0000   0.2131
  17.000   1.6575   0.02484   0.02057   0.0286  0.0085  1.0000  -13.1964   0.0000   0.2102
  17.500   1.6754   0.02724   0.02308   0.0308  0.0084  1.0000  -13.6867   0.0000   0.2080
  18.000   1.6888   0.03035   0.02631   0.0322  0.0082  1.0000  -14.1435   0.0000   0.2062
  18.500   1.6967   0.03440   0.03049   0.0326  0.0081  1.0000  -14.5506   0.0000   0.2048
  19.000   1.6979   0.03965   0.03588   0.0319  0.0079  1.0000  -14.8927   0.0000   0.2040
  19.500   1.6896   0.04655   0.04295   0.0298  0.0078  1.0000  -15.1348   0.0000   0.2038
  20.000   1.6678   0.05572   0.05231   0.0261  0.0077  1.0000  -15.2294   0.0000   0.2044
  20.500   1.6283   0.06801   0.06484   0.0203  0.0076  1.0000  -15.1167   0.0000   0.2062
  21.000   1.5653   0.08454   0.08165   0.0120  0.0076  1.0000  -14.7109   0.0000   0.2095
  21.500   1.4755   0.10633   0.10377   0.0002  0.0077  1.0000  -13.9278   0.0000   0.2156
  22.000   1.3676   0.13283   0.13064  -0.0160  0.0078  1.0000  -12.7689   0.0000   0.2262
  22.500   1.2686   0.15985   0.15799  -0.0349  0.0079  1.0000  -11.4830   0.0000   0.2410
  23.000   1.2080   0.18092   0.17929  -0.0509  0.0078  1.0000  -10.5442   0.0000   0.2548
  23.500   1.1756   0.19678   0.19529  -0.0635  0.0077  1.0000  -9.9411   0.0000   0.2657
  24.000   1.1576   0.20988   0.20849  -0.0741  0.0074  1.0000  -9.5144   0.0000   0.2748
  24.500   1.1488   0.22089   0.21956  -0.0833  0.0071  1.0000  -9.2142   0.0000   0.2824
  25.000   1.1466   0.23037   0.22910  -0.0914  0.0068  1.0000  -9.0165   0.0000   0.2885
  25.500   1.1448   0.23995   0.23877  -0.0996  0.0067  1.0000  -8.7790   0.0000   0.2948
  26.000   1.1409   0.25049   0.24938  -0.1086  0.0064  1.0000  -8.4104   0.0000   0.3021
  26.500   1.1371   0.26139   0.26035  -0.1177  0.0060  1.0000  -7.9642   0.0000   0.3097


