xflr5 v6.33

 Calculated polar for: NACA 0012 v1

 1 1 Reynolds number fixed          Mach number fixed         

 xtrf =   1.000 (top)        1.000 (bottom)
 Mach =   0.000     Re =     4.400 e 6     Ncrit =   9.000

  alpha     CL        CD       CDp       Cm    Top Xtr Bot Xtr   Cpmin    Chinge    XCp    
 ------- -------- --------- --------- -------- ------- ------- -------- --------- ---------
 -27.000  -1.1565   0.26269   0.26168   0.1211  1.0000  0.0054  -8.4453   0.0000   0.3087
 -26.500  -1.1514   0.25527   0.25423   0.1141  1.0000  0.0058  -8.5615   0.0000   0.3042
 -26.000  -1.1519   0.24598   0.24490   0.1060  1.0000  0.0061  -8.8319   0.0000   0.2981
 -25.500  -1.1520   0.23701   0.23587   0.0980  1.0000  0.0064  -9.0417   0.0000   0.2922
 -25.000  -1.1547   0.22741   0.22620   0.0897  1.0000  0.0066  -9.2732   0.0000   0.2858
 -24.500  -1.1597   0.21739   0.21611   0.0812  1.0000  0.0068  -9.5124   0.0000   0.2791
 -24.000  -1.1694   0.20639   0.20502   0.0720  1.0000  0.0069  -9.8024   0.0000   0.2716
 -23.500  -1.2024   0.19000   0.18848   0.0589  1.0000  0.0071  -10.4944   0.0000   0.2597
 -23.000  -1.2710   0.16687   0.16511   0.0409  1.0000  0.0072  -11.6461   0.0000   0.2436
 -22.500  -1.3618   0.14113   0.13906   0.0223  1.0000  0.0071  -12.8866   0.0000   0.2287
 -22.000  -1.4538   0.11706   0.11467   0.0068  1.0000  0.0069  -13.9110   0.0000   0.2183
 -21.500  -1.5523   0.09340   0.09068  -0.0065  1.0000  0.0069  -14.8502   0.0000   0.2108
 -21.000  -1.6292   0.07449   0.07147  -0.0162  1.0000  0.0069  -15.4355   0.0000   0.2065
 -20.500  -1.6770   0.06078   0.05752  -0.0228  1.0000  0.0069  -15.6486   0.0000   0.2044
 -20.000  -1.7083   0.05011   0.04663  -0.0274  1.0000  0.0069  -15.6594   0.0000   0.2033
 -19.500  -1.7288   0.04157   0.03788  -0.0303  1.0000  0.0071  -15.5416   0.0000   0.2032
 -19.000  -1.7358   0.03532   0.03148  -0.0315  1.0000  0.0074  -15.2749   0.0000   0.2040
 -18.500  -1.7325   0.03076   0.02679  -0.0312  1.0000  0.0076  -14.9002   0.0000   0.2053
 -18.000  -1.7222   0.02735   0.02327  -0.0299  1.0000  0.0078  -14.4586   0.0000   0.2072
 -17.500  -1.7067   0.02474   0.02056  -0.0278  1.0000  0.0080  -13.9725   0.0000   0.2094
 -17.000  -1.6871   0.02272   0.01845  -0.0251  1.0000  0.0082  -13.4564   0.0000   0.2118
 -16.500  -1.6639   0.02111   0.01676  -0.0220  1.0000  0.0084  -12.9369   0.0000   0.2145
 -16.000  -1.6377   0.01983   0.01540  -0.0187  1.0000  0.0085  -12.4003   0.0000   0.2174
 -15.500  -1.6141   0.01847   0.01396  -0.0144  1.0000  0.0090  -11.8984   0.0000   0.2208
 -15.000  -1.5784   0.01738   0.01283  -0.0120  1.0000  0.0094  -11.3178   0.0000   0.2230
 -14.500  -1.5382   0.01645   0.01185  -0.0101  1.0000  0.0098  -10.7190   0.0000   0.2250
 -14.000  -1.4952   0.01564   0.01100  -0.0086  1.0000  0.0101  -10.1149   0.0000   0.2267
 -13.500  -1.4517   0.01478   0.01010  -0.0071  1.0000  0.0107  -9.5265   0.0000   0.2285
 -13.000  -1.4067   0.01398   0.00928  -0.0057  1.0000  0.0114  -8.9414   0.0000   0.2301
 -12.500  -1.3596   0.01331   0.00859  -0.0046  1.0000  0.0120  -8.3592   0.0000   0.2316
 -12.000  -1.3124   0.01264   0.00790  -0.0035  1.0000  0.0127  -7.8133   0.0000   0.2331
 -11.500  -1.2650   0.01200   0.00725  -0.0023  1.0000  0.0136  -7.2851   0.0000   0.2348
 -11.000  -1.2174   0.01149   0.00673  -0.0009  1.0000  0.0142  -6.7698   0.0000   0.2365
 -10.500  -1.1727   0.01091   0.00615   0.0010  1.0000  0.0157  -6.2865   0.0000   0.2389
 -10.000  -1.1288   0.01046   0.00569   0.0033  1.0000  0.0166  -5.8189   0.0000   0.2416
  -9.500  -1.0703   0.00992   0.00517   0.0023  0.9990  0.0184  -5.3157   0.0000   0.2415
  -9.000  -1.0082   0.00942   0.00469   0.0006  0.9974  0.0206  -4.8266   0.0000   0.2406
  -8.500  -0.9449   0.00894   0.00424  -0.0013  0.9961  0.0231  -4.3517   0.0000   0.2392
  -8.000  -0.8828   0.00850   0.00383  -0.0029  0.9932  0.0262  -3.9111   0.0000   0.2378
  -7.000  -0.7703   0.00774   0.00313  -0.0032  0.9754  0.0350  -3.1450   0.0000   0.2379
  -6.500  -0.7179   0.00740   0.00281  -0.0024  0.9596  0.0413  -2.8131   0.0000   0.2392
  -6.000  -0.6648   0.00710   0.00252  -0.0017  0.9400  0.0496  -2.4971   0.0000   0.2404
  -5.500  -0.6109   0.00682   0.00224  -0.0012  0.9160  0.0604  -2.2035   0.0000   0.2414
  -5.000  -0.5565   0.00655   0.00197  -0.0008  0.8868  0.0754  -1.9318   0.0000   0.2422
  -4.500  -0.5017   0.00630   0.00173  -0.0005  0.8527  0.0953  -1.6814   0.0000   0.2430
  -4.000  -0.4467   0.00607   0.00151  -0.0003  0.8144  0.1211  -1.4537   0.0000   0.2437
  -3.500  -0.3915   0.00586   0.00131  -0.0001  0.7724  0.1531  -1.2483   0.0000   0.2443
  -3.000  -0.3361   0.00567   0.00114  -0.0000  0.7286  0.1902  -1.0671   0.0000   0.2448
  -2.500  -0.2805   0.00550   0.00100   0.0001  0.6835  0.2315  -0.9077   0.0000   0.2453
  -2.000  -0.2247   0.00535   0.00089   0.0001  0.6381  0.2751  -0.7706   0.0000   0.2456
  -1.500  -0.1687   0.00524   0.00080   0.0001  0.5929  0.3203  -0.6550   0.0000   0.2459
  -1.000  -0.1126   0.00517   0.00074   0.0001  0.5474  0.3660  -0.5588   0.0000   0.2462
  -0.500  -0.0563   0.00512   0.00070   0.0000  0.5024  0.4117  -0.4794   0.0000   0.2463
   0.000  -0.0000   0.00510   0.00069  -0.0000  0.4572  0.4572  -0.4128   0.0000   0.4510
   0.500   0.0563   0.00512   0.00070  -0.0000  0.4117  0.5024  -0.4794   0.0000   0.2463
   1.000   0.1126   0.00517   0.00074  -0.0001  0.3660  0.5474  -0.5588   0.0000   0.2462
   1.500   0.1687   0.00524   0.00080  -0.0001  0.3203  0.5929  -0.6550   0.0000   0.2459
   2.000   0.2247   0.00535   0.00089  -0.0001  0.2750  0.6380  -0.7707   0.0000   0.2456
   2.500   0.2805   0.00550   0.00100  -0.0000  0.2315  0.6835  -0.9077   0.0000   0.2453
   3.000   0.3361   0.00567   0.00114   0.0001  0.1902  0.7286  -1.0671   0.0000   0.2448
   3.500   0.3915   0.00586   0.00131   0.0002  0.1531  0.7724  -1.2483   0.0000   0.2443
   4.000   0.4467   0.00607   0.00151   0.0004  0.1211  0.8144  -1.4538   0.0000   0.2437
   4.500   0.5017   0.00630   0.00173   0.0006  0.0953  0.8527  -1.6815   0.0000   0.2430
   5.000   0.5565   0.00655   0.00197   0.0010  0.0754  0.8868  -1.9318   0.0000   0.2422
   5.500   0.6110   0.00682   0.00224   0.0013  0.0604  0.9160  -2.2036   0.0000   0.2414
   6.000   0.6649   0.00710   0.00252   0.0019  0.0496  0.9400  -2.4972   0.0000   0.2404
   6.500   0.7180   0.00740   0.00281   0.0026  0.0413  0.9596  -2.8133   0.0000   0.2392
   7.000   0.7703   0.00774   0.00313   0.0034  0.0350  0.9754  -3.1452   0.0000   0.2379
   7.500   0.8245   0.00811   0.00347   0.0038  0.0300  0.9866  -3.5114   0.0000   0.2373
   8.000   0.8829   0.00850   0.00383   0.0032  0.0262  0.9933  -3.9113   0.0000   0.2378
   8.500   0.9450   0.00894   0.00424   0.0016  0.0231  0.9961  -4.3519   0.0000   0.2392
   9.000   1.0082   0.00942   0.00469  -0.0002  0.0206  0.9974  -4.8268   0.0000   0.2406
   9.500   1.0703   0.00992   0.00517  -0.0019  0.0184  0.9990  -5.3160   0.0000   0.2415
  10.000   1.1286   0.01046   0.00569  -0.0028  0.0166  1.0000  -5.8184   0.0000   0.2416
  10.500   1.1727   0.01091   0.00615  -0.0005  0.0157  1.0000  -6.2862   0.0000   0.2389
  11.000   1.2174   0.01149   0.00673   0.0015  0.0142  1.0000  -6.7698   0.0000   0.2365
  11.500   1.2650   0.01200   0.00725   0.0029  0.0136  1.0000  -7.2854   0.0000   0.2348
  12.000   1.3125   0.01264   0.00790   0.0041  0.0127  1.0000  -7.8138   0.0000   0.2332
  12.500   1.3598   0.01331   0.00859   0.0053  0.0120  1.0000  -8.3599   0.0000   0.2316
  13.000   1.4069   0.01398   0.00928   0.0065  0.0114  1.0000  -8.9423   0.0000   0.2301
  13.500   1.4519   0.01478   0.01010   0.0079  0.0107  1.0000  -9.5276   0.0000   0.2285
  14.000   1.4955   0.01564   0.01100   0.0094  0.0101  1.0000  -10.1164   0.0000   0.2268
  14.500   1.5385   0.01645   0.01185   0.0110  0.0098  1.0000  -10.7207   0.0000   0.2250
  15.000   1.5787   0.01738   0.01283   0.0129  0.0094  1.0000  -11.3199   0.0000   0.2231
  15.500   1.6145   0.01847   0.01397   0.0154  0.0090  1.0000  -11.9011   0.0000   0.2208
  16.000   1.6384   0.01983   0.01540   0.0197  0.0085  1.0000  -12.4045   0.0000   0.2174
  16.500   1.6646   0.02111   0.01676   0.0231  0.0084  1.0000  -12.9419   0.0000   0.2146
  17.000   1.6879   0.02271   0.01844   0.0262  0.0082  1.0000  -13.4623   0.0000   0.2119
  17.500   1.7076   0.02473   0.02055   0.0289  0.0080  1.0000  -13.9796   0.0000   0.2095
  18.000   1.7233   0.02733   0.02325   0.0311  0.0078  1.0000  -14.4669   0.0000   0.2073
  18.500   1.7337   0.03073   0.02676   0.0324  0.0076  1.0000  -14.9099   0.0000   0.2054
  19.000   1.7372   0.03528   0.03144   0.0327  0.0074  1.0000  -15.2858   0.0000   0.2041
  19.500   1.7304   0.04152   0.03784   0.0316  0.0071  1.0000  -15.5538   0.0000   0.2034
  20.000   1.7100   0.05007   0.04658   0.0286  0.0069  1.0000  -15.6727   0.0000   0.2035
  20.500   1.6794   0.06065   0.05738   0.0240  0.0069  1.0000  -15.6699   0.0000   0.2045
  21.000   1.6319   0.07430   0.07128   0.0174  0.0069  1.0000  -15.4606   0.0000   0.2066
  21.500   1.5554   0.09317   0.09045   0.0077  0.0069  1.0000  -14.8797   0.0000   0.2109
  22.000   1.4552   0.11708   0.11470  -0.0059  0.0069  1.0000  -13.9209   0.0000   0.2185
  22.500   1.3629   0.14122   0.13915  -0.0215  0.0071  1.0000  -12.8935   0.0000   0.2289
  23.000   1.2719   0.16705   0.16530  -0.0403  0.0072  1.0000  -11.6487   0.0000   0.2438
  23.500   1.2034   0.19027   0.18876  -0.0584  0.0071  1.0000  -10.4974   0.0000   0.2599
  24.000   1.1707   0.20666   0.20529  -0.0716  0.0069  1.0000  -9.8105   0.0000   0.2718
  24.500   1.1611   0.21774   0.21646  -0.0809  0.0068  1.0000  -9.5200   0.0000   0.2793
  25.000   1.1560   0.22787   0.22667  -0.0895  0.0066  1.0000  -9.2787   0.0000   0.2860
  25.500   1.1534   0.23751   0.23637  -0.0978  0.0064  1.0000  -9.0488   0.0000   0.2923
  26.000   1.1533   0.24657   0.24548  -0.1058  0.0061  1.0000  -8.8386   0.0000   0.2982
  26.500   1.1529   0.25594   0.25490  -0.1140  0.0058  1.0000  -8.5685   0.0000   0.3044
  27.000   1.1581   0.26357   0.26257  -0.1210  0.0054  1.0000  -8.4511   0.0000   0.3088


