xflr5 v6.33

 Calculated polar for: NACA 0012-64

 1 1 Reynolds number fixed          Mach number fixed         

 xtrf =   1.000 (top)        1.000 (bottom)
 Mach =   0.000     Re =     5.000 e 6     Ncrit =   9.000

  alpha     CL        CD       CDp       Cm    Top Xtr Bot Xtr   Cpmin    Chinge    XCp    
 ------- -------- --------- --------- -------- ------- ------- -------- --------- ---------
 -26.500  -1.0298   0.27231   0.27141   0.0954  1.0000  0.0038  -7.5174   0.0000   0.2987
 -26.000  -1.0206   0.26532   0.26439   0.0894  1.0000  0.0039  -7.5375   0.0000   0.2949
 -25.500  -1.0132   0.25754   0.25659   0.0831  1.0000  0.0043  -7.6205   0.0000   0.2904
 -25.000  -1.0043   0.25036   0.24940   0.0771  1.0000  0.0047  -7.6148   0.0000   0.2864
 -24.500  -1.0014   0.24105   0.24005   0.0701  1.0000  0.0050  -7.7985   0.0000   0.2806
 -24.000  -0.9945   0.23337   0.23233   0.0641  1.0000  0.0052  -7.8079   0.0000   0.2761
 -23.500  -1.0030   0.22076   0.21969   0.0551  1.0000  0.0058  -8.2443   0.0000   0.2674
 -23.000  -1.0527   0.19716   0.19594   0.0392  1.0000  0.0062  -9.5774   0.0000   0.2498
 -22.500  -1.4999   0.09895   0.09652  -0.0223  1.0000  0.0051  -16.9478   0.0000   0.1978
 -22.000  -1.6028   0.07513   0.07232  -0.0352  1.0000  0.0050  -17.9949   0.0000   0.1925
 -21.500  -1.6475   0.06191   0.05885  -0.0415  1.0000  0.0051  -18.1873   0.0000   0.1908
 -21.000  -1.6706   0.05268   0.04943  -0.0450  1.0000  0.0051  -18.0751   0.0000   0.1907
 -20.500  -1.6855   0.04529   0.04187  -0.0467  1.0000  0.0052  -17.8435   0.0000   0.1914
 -20.000  -1.6954   0.03918   0.03559  -0.0469  1.0000  0.0055  -17.5419   0.0000   0.1928
 -19.500  -1.6975   0.03444   0.03072  -0.0458  1.0000  0.0058  -17.1428   0.0000   0.1947
 -19.000  -1.6921   0.03075   0.02691  -0.0441  1.0000  0.0060  -16.6618   0.0000   0.1969
 -18.500  -1.6806   0.02783   0.02387  -0.0418  1.0000  0.0062  -16.1195   0.0000   0.1993
 -18.000  -1.6639   0.02547   0.02142  -0.0393  1.0000  0.0064  -15.5365   0.0000   0.2017
 -17.500  -1.6436   0.02349   0.01935  -0.0366  1.0000  0.0066  -14.9420   0.0000   0.2041
 -17.000  -1.6254   0.02148   0.01725  -0.0332  1.0000  0.0072  -14.3784   0.0000   0.2071
 -16.500  -1.6021   0.01988   0.01557  -0.0298  1.0000  0.0077  -13.7744   0.0000   0.2099
 -16.000  -1.5740   0.01862   0.01425  -0.0267  1.0000  0.0080  -13.1419   0.0000   0.2125
 -15.500  -1.5456   0.01740   0.01297  -0.0234  1.0000  0.0088  -12.5417   0.0000   0.2153
 -15.000  -1.5158   0.01632   0.01184  -0.0199  1.0000  0.0096  -11.9394   0.0000   0.2182
 -14.500  -1.4838   0.01549   0.01096  -0.0164  1.0000  0.0101  -11.3314   0.0000   0.2212
 -14.000  -1.4552   0.01462   0.01006  -0.0120  1.0000  0.0114  -10.7616   0.0000   0.2249
 -13.000  -1.3825   0.01320   0.00862  -0.0059  0.9992  0.0142  -9.5533   0.0000   0.2305
 -12.500  -1.3279   0.01255   0.00795  -0.0066  0.9979  0.0153  -8.8585   0.0000   0.2306
 -12.000  -1.2721   0.01190   0.00731  -0.0076  0.9967  0.0168  -8.1788   0.0000   0.2304
 -11.500  -1.2143   0.01139   0.00679  -0.0088  0.9958  0.0175  -7.5084   0.0000   0.2299
 -11.000  -1.1579   0.01081   0.00622  -0.0097  0.9940  0.0189  -6.8735   0.0000   0.2295
 -10.500  -1.1039   0.01035   0.00578  -0.0099  0.9899  0.0201  -6.2714   0.0000   0.2296
 -10.000  -1.0509   0.00999   0.00542  -0.0098  0.9846  0.0207  -5.7022   0.0000   0.2299
  -9.500  -1.0015   0.00961   0.00502  -0.0088  0.9772  0.0212  -5.2193   0.0000   0.2311
  -8.500  -0.9016   0.00881   0.00421  -0.0070  0.9612  0.0236  -4.3313   0.0000   0.2333
  -8.000  -0.8493   0.00852   0.00390  -0.0065  0.9527  0.0243  -3.9133   0.0000   0.2339
  -7.500  -0.7963   0.00825   0.00362  -0.0061  0.9440  0.0247  -3.5347   0.0000   0.2344
  -7.000  -0.7441   0.00789   0.00323  -0.0056  0.9341  0.0262  -3.2143   0.0000   0.2350
  -6.500  -0.6906   0.00758   0.00292  -0.0053  0.9240  0.0275  -2.9322   0.0000   0.2353
  -6.000  -0.6364   0.00732   0.00265  -0.0051  0.9136  0.0284  -2.6556   0.0000   0.2353
  -5.500  -0.5819   0.00710   0.00241  -0.0050  0.9013  0.0290  -2.3869   0.0000   0.2352
  -5.000  -0.5275   0.00686   0.00215  -0.0048  0.8884  0.0314  -2.1319   0.0000   0.2349
  -4.500  -0.4728   0.00664   0.00193  -0.0047  0.8753  0.0342  -1.8826   0.0000   0.2344
  -4.000  -0.4188   0.00634   0.00169  -0.0045  0.8609  0.0493  -1.6466   0.0000   0.2340
  -3.500  -0.3646   0.00607   0.00148  -0.0042  0.8460  0.0706  -1.4327   0.0000   0.2332
  -3.000  -0.3097   0.00585   0.00132  -0.0042  0.8302  0.0902  -1.2253   0.0000   0.2316
  -2.500  -0.2558   0.00561   0.00116  -0.0039  0.8088  0.1260  -1.0386   0.0000   0.2300
  -2.000  -0.2023   0.00538   0.00102  -0.0035  0.7773  0.1741  -0.8632   0.0000   0.2279
  -1.500  -0.1496   0.00515   0.00090  -0.0030  0.7397  0.2366  -0.6963   0.0000   0.2252
  -1.000  -0.0999   0.00470   0.00075  -0.0020  0.6997  0.3654  -0.5416   0.0000   0.2253
  -0.500  -0.0495   0.00440   0.00065  -0.0011  0.6512  0.4748  -0.4231   0.0000   0.2231
   0.000  -0.0000   0.00448   0.00065   0.0000  0.5500  0.5500  -0.3385   0.0000   0.4693
   0.500   0.0495   0.00440   0.00065   0.0011  0.4748  0.6512  -0.4231   0.0000   0.2231
   1.000   0.0999   0.00470   0.00075   0.0020  0.3654  0.6997  -0.5416   0.0000   0.2253
   1.500   0.1496   0.00515   0.00090   0.0030  0.2366  0.7397  -0.6963   0.0000   0.2252
   2.000   0.2023   0.00538   0.00102   0.0035  0.1741  0.7773  -0.8632   0.0000   0.2280
   3.000   0.3097   0.00585   0.00132   0.0042  0.0901  0.8302  -1.2254   0.0000   0.2316
   3.500   0.3646   0.00607   0.00148   0.0042  0.0706  0.8460  -1.4328   0.0000   0.2332
   4.000   0.4189   0.00634   0.00169   0.0044  0.0492  0.8609  -1.6467   0.0000   0.2340
   4.500   0.4728   0.00664   0.00193   0.0047  0.0341  0.8753  -1.8827   0.0000   0.2344
   5.000   0.5276   0.00686   0.00215   0.0048  0.0314  0.8884  -2.1320   0.0000   0.2350
   5.500   0.5820   0.00711   0.00241   0.0050  0.0290  0.9013  -2.3870   0.0000   0.2352
   6.000   0.6365   0.00732   0.00265   0.0051  0.0284  0.9135  -2.6558   0.0000   0.2354
   6.500   0.6907   0.00758   0.00292   0.0053  0.0275  0.9239  -2.9324   0.0000   0.2353
   7.000   0.7442   0.00789   0.00323   0.0056  0.0262  0.9340  -3.2145   0.0000   0.2350
   7.500   0.7965   0.00825   0.00362   0.0061  0.0247  0.9440  -3.5351   0.0000   0.2344
   8.000   0.8494   0.00852   0.00390   0.0064  0.0243  0.9527  -3.9138   0.0000   0.2340
   8.500   0.9017   0.00882   0.00421   0.0069  0.0236  0.9611  -4.3319   0.0000   0.2333
   9.000   0.9530   0.00916   0.00456   0.0076  0.0226  0.9691  -4.7745   0.0000   0.2325
   9.500   1.0017   0.00961   0.00502   0.0087  0.0212  0.9772  -5.2201   0.0000   0.2311
  10.000   1.0511   0.00999   0.00542   0.0098  0.0207  0.9846  -5.7032   0.0000   0.2299
  10.500   1.1041   0.01035   0.00578   0.0099  0.0201  0.9899  -6.2724   0.0000   0.2296
  11.000   1.1581   0.01081   0.00622   0.0096  0.0189  0.9940  -6.8746   0.0000   0.2295
  11.500   1.2145   0.01139   0.00679   0.0088  0.0175  0.9958  -7.5097   0.0000   0.2299
  12.000   1.2724   0.01190   0.00731   0.0075  0.0168  0.9967  -8.1803   0.0000   0.2305
  12.500   1.3281   0.01255   0.00795   0.0066  0.0153  0.9979  -8.8601   0.0000   0.2306
  13.000   1.3828   0.01320   0.00862   0.0059  0.0142  0.9992  -9.5552   0.0000   0.2305
  13.500   1.4278   0.01397   0.00938   0.0070  0.0124  1.0000  -10.2079   0.0000   0.2290
  14.000   1.4554   0.01461   0.01005   0.0120  0.0114  1.0000  -10.7628   0.0000   0.2249
  14.500   1.4844   0.01549   0.01096   0.0163  0.0101  1.0000  -11.3355   0.0000   0.2213
  15.000   1.5165   0.01632   0.01184   0.0198  0.0095  1.0000  -11.9445   0.0000   0.2183
  15.500   1.5464   0.01740   0.01297   0.0232  0.0088  1.0000  -12.5475   0.0000   0.2154
  16.000   1.5750   0.01862   0.01424   0.0265  0.0080  1.0000  -13.1491   0.0000   0.2126
  16.500   1.6032   0.01988   0.01557   0.0296  0.0077  1.0000  -13.7828   0.0000   0.2100
  17.000   1.6266   0.02148   0.01724   0.0329  0.0072  1.0000  -14.3878   0.0000   0.2072
  17.500   1.6449   0.02349   0.01934   0.0363  0.0066  1.0000  -14.9528   0.0000   0.2043
  18.000   1.6654   0.02545   0.02140   0.0390  0.0064  1.0000  -15.5498   0.0000   0.2019
  18.500   1.6823   0.02780   0.02384   0.0415  0.0062  1.0000  -16.1347   0.0000   0.1995
  19.000   1.6940   0.03072   0.02687   0.0438  0.0060  1.0000  -16.6788   0.0000   0.1971
  19.500   1.6995   0.03440   0.03067   0.0455  0.0058  1.0000  -17.1618   0.0000   0.1949
  20.000   1.6976   0.03912   0.03553   0.0466  0.0055  1.0000  -17.5630   0.0000   0.1930
  20.500   1.6879   0.04523   0.04180   0.0464  0.0052  1.0000  -17.8662   0.0000   0.1916
  21.000   1.6738   0.05253   0.04927   0.0447  0.0051  1.0000  -18.1067   0.0000   0.1909
  21.500   1.6509   0.06173   0.05866   0.0412  0.0051  1.0000  -18.2227   0.0000   0.1911
  22.000   1.6068   0.07487   0.07205   0.0349  0.0050  1.0000  -18.0383   0.0000   0.1927
  22.500   1.5061   0.09831   0.09587   0.0223  0.0051  1.0000  -17.0231   0.0000   0.1979
  23.000   1.0675   0.19412   0.19286  -0.0374  0.0062  1.0000  -9.8813   0.0000   0.2475
  23.500   1.0044   0.22142   0.22035  -0.0556  0.0058  1.0000  -8.2462   0.0000   0.2678
  24.000   0.9963   0.23405   0.23302  -0.0645  0.0052  1.0000  -7.8167   0.0000   0.2765
  24.500   1.0032   0.24188   0.24088  -0.0706  0.0050  1.0000  -7.8045   0.0000   0.2810
  25.000   1.0062   0.25126   0.25030  -0.0776  0.0047  1.0000  -7.6227   0.0000   0.2868
  25.500   1.0150   0.25858   0.25763  -0.0836  0.0043  1.0000  -7.6267   0.0000   0.2908
  26.000   1.0225   0.26648   0.26555  -0.0899  0.0039  1.0000  -7.5427   0.0000   0.2953
  26.500   1.0318   0.27361   0.27271  -0.0959  0.0038  1.0000  -7.5246   0.0000   0.2990
  27.000   1.0377   0.28242   0.28156  -0.1028  0.0035  1.0000  -7.2956   0.0000   0.3042
  27.500   1.0485   0.28887   0.28802  -0.1085  0.0033  1.0000  -7.3147   0.0000   0.3073


