xflr5 v6.33

 Calculated polar for: NACA 0012-64

 1 1 Reynolds number fixed          Mach number fixed         

 xtrf =   1.000 (top)        1.000 (bottom)
 Mach =   0.000     Re =     4.700 e 6     Ncrit =   9.000

  alpha     CL        CD       CDp       Cm    Top Xtr Bot Xtr   Cpmin    Chinge    XCp    
 ------- -------- --------- --------- -------- ------- ------- -------- --------- ---------
 -26.500  -1.0289   0.27265   0.27172   0.0955  1.0000  0.0038  -7.4696   0.0000   0.2990
 -26.000  -1.0203   0.26537   0.26441   0.0894  1.0000  0.0040  -7.5198   0.0000   0.2950
 -25.500  -1.0124   0.25775   0.25679   0.0832  1.0000  0.0044  -7.5862   0.0000   0.2906
 -25.000  -1.0035   0.25062   0.24965   0.0773  1.0000  0.0048  -7.5793   0.0000   0.2867
 -24.500  -1.0007   0.24123   0.24021   0.0702  1.0000  0.0051  -7.7718   0.0000   0.2808
 -24.000  -0.9931   0.23373   0.23269   0.0643  1.0000  0.0054  -7.7661   0.0000   0.2765
 -23.500  -1.0006   0.22144   0.22036   0.0555  1.0000  0.0059  -8.1773   0.0000   0.2680
 -23.000  -1.0289   0.20361   0.20242   0.0433  1.0000  0.0063  -9.0176   0.0000   0.2551
 -22.500  -1.4503   0.10749   0.10518  -0.0175  1.0000  0.0053  -16.2439   0.0000   0.2005
 -22.000  -1.5697   0.08029   0.07755  -0.0325  1.0000  0.0051  -17.5582   0.0000   0.1936
 -21.500  -1.6244   0.06516   0.06216  -0.0401  1.0000  0.0051  -17.8960   0.0000   0.1913
 -21.000  -1.6577   0.05432   0.05109  -0.0445  1.0000  0.0052  -17.9186   0.0000   0.1907
 -20.500  -1.6782   0.04611   0.04269  -0.0466  1.0000  0.0055  -17.7588   0.0000   0.1913
 -20.000  -1.6881   0.03991   0.03633  -0.0470  1.0000  0.0057  -17.4584   0.0000   0.1926
 -19.500  -1.6897   0.03515   0.03143  -0.0461  1.0000  0.0059  -17.0563   0.0000   0.1945
 -19.000  -1.6842   0.03142   0.02758  -0.0445  1.0000  0.0061  -16.5758   0.0000   0.1966
 -18.500  -1.6726   0.02845   0.02449  -0.0424  1.0000  0.0063  -16.0353   0.0000   0.1988
 -18.000  -1.6560   0.02604   0.02198  -0.0400  1.0000  0.0065  -15.4584   0.0000   0.2012
 -17.500  -1.6393   0.02379   0.01963  -0.0370  1.0000  0.0069  -14.9017   0.0000   0.2038
 -17.000  -1.6209   0.02177   0.01752  -0.0337  1.0000  0.0074  -14.3357   0.0000   0.2067
 -16.500  -1.5970   0.02019   0.01587  -0.0305  1.0000  0.0078  -13.7275   0.0000   0.2094
 -16.000  -1.5688   0.01893   0.01454  -0.0274  1.0000  0.0081  -13.0948   0.0000   0.2120
 -15.500  -1.5421   0.01760   0.01314  -0.0239  1.0000  0.0090  -12.5111   0.0000   0.2149
 -15.000  -1.5116   0.01654   0.01204  -0.0206  1.0000  0.0097  -11.9041   0.0000   0.2178
 -14.500  -1.4803   0.01564   0.01109  -0.0170  1.0000  0.0105  -11.3040   0.0000   0.2208
 -14.000  -1.4516   0.01479   0.01020  -0.0127  1.0000  0.0117  -10.7326   0.0000   0.2244
 -13.500  -1.4237   0.01410   0.00949  -0.0078  1.0000  0.0129  -10.1779   0.0000   0.2285
 -13.000  -1.3831   0.01341   0.00880  -0.0056  0.9994  0.0144  -9.5528   0.0000   0.2307
 -12.500  -1.3288   0.01272   0.00809  -0.0063  0.9982  0.0156  -8.8609   0.0000   0.2308
 -12.000  -1.2729   0.01209   0.00747  -0.0073  0.9969  0.0170  -8.1795   0.0000   0.2307
 -11.500  -1.2150   0.01159   0.00696  -0.0085  0.9959  0.0176  -7.5084   0.0000   0.2301
 -11.000  -1.1575   0.01098   0.00636  -0.0097  0.9948  0.0192  -6.8678   0.0000   0.2295
 -10.500  -1.1028   0.01053   0.00592  -0.0101  0.9911  0.0203  -6.2623   0.0000   0.2294
 -10.000  -1.0472   0.01015   0.00555  -0.0106  0.9870  0.0208  -5.6824   0.0000   0.2291
  -9.500  -0.9991   0.00970   0.00507  -0.0093  0.9793  0.0216  -5.2084   0.0000   0.2305
  -9.000  -0.9501   0.00928   0.00465  -0.0082  0.9715  0.0229  -4.7605   0.0000   0.2318
  -8.500  -0.8991   0.00894   0.00431  -0.0075  0.9638  0.0238  -4.3193   0.0000   0.2327
  -8.000  -0.8472   0.00864   0.00399  -0.0069  0.9554  0.0244  -3.9040   0.0000   0.2334
  -7.500  -0.7946   0.00838   0.00371  -0.0065  0.9463  0.0247  -3.5266   0.0000   0.2339
  -7.000  -0.7426   0.00797   0.00328  -0.0059  0.9370  0.0266  -3.2083   0.0000   0.2346
  -6.500  -0.6891   0.00767   0.00297  -0.0056  0.9271  0.0277  -2.9258   0.0000   0.2348
  -6.000  -0.6351   0.00741   0.00270  -0.0054  0.9169  0.0286  -2.6500   0.0000   0.2349
  -5.500  -0.5807   0.00719   0.00245  -0.0053  0.9051  0.0291  -2.3819   0.0000   0.2347
  -5.000  -0.5266   0.00692   0.00218  -0.0050  0.8921  0.0320  -2.1287   0.0000   0.2345
  -4.500  -0.4719   0.00670   0.00195  -0.0049  0.8793  0.0356  -1.8803   0.0000   0.2340
  -4.000  -0.4181   0.00638   0.00170  -0.0046  0.8652  0.0522  -1.6449   0.0000   0.2336
  -3.500  -0.3638   0.00612   0.00151  -0.0044  0.8502  0.0728  -1.4309   0.0000   0.2327
  -3.000  -0.3091   0.00591   0.00134  -0.0043  0.8342  0.0926  -1.2241   0.0000   0.2312
  -2.500  -0.2553   0.00561   0.00117  -0.0040  0.8150  0.1341  -1.0378   0.0000   0.2295
  -2.000  -0.2020   0.00539   0.00103  -0.0036  0.7846  0.1821  -0.8627   0.0000   0.2275
  -1.500  -0.1496   0.00513   0.00090  -0.0030  0.7476  0.2516  -0.6964   0.0000   0.2251
  -1.000  -0.1002   0.00464   0.00074  -0.0020  0.7102  0.3867  -0.5422   0.0000   0.2257
  -0.500  -0.0497   0.00434   0.00065  -0.0011  0.6652  0.4944  -0.4233   0.0000   0.2236
   0.000  -0.0000   0.00442   0.00064   0.0000  0.5675  0.5675  -0.3385   0.0000   0.4642
   0.500   0.0497   0.00434   0.00065   0.0011  0.4944  0.6651  -0.4233   0.0000   0.2236
   1.000   0.1002   0.00464   0.00074   0.0020  0.3867  0.7102  -0.5422   0.0000   0.2257
   1.500   0.1496   0.00513   0.00090   0.0030  0.2516  0.7476  -0.6964   0.0000   0.2251
   2.000   0.2020   0.00539   0.00103   0.0036  0.1821  0.7847  -0.8627   0.0000   0.2275
   2.500   0.2553   0.00561   0.00117   0.0040  0.1341  0.8150  -1.0378   0.0000   0.2295
   3.000   0.3092   0.00591   0.00134   0.0043  0.0926  0.8342  -1.2242   0.0000   0.2312
   3.500   0.3638   0.00612   0.00151   0.0044  0.0728  0.8502  -1.4310   0.0000   0.2327
   4.000   0.4181   0.00638   0.00170   0.0046  0.0522  0.8652  -1.6449   0.0000   0.2336
   4.500   0.4719   0.00670   0.00195   0.0049  0.0356  0.8793  -1.8804   0.0000   0.2340
   5.000   0.5266   0.00692   0.00218   0.0050  0.0320  0.8921  -2.1288   0.0000   0.2345
   5.500   0.5807   0.00719   0.00245   0.0052  0.0291  0.9051  -2.3820   0.0000   0.2347
   6.000   0.6352   0.00741   0.00270   0.0054  0.0286  0.9168  -2.6502   0.0000   0.2349
   6.500   0.6892   0.00767   0.00297   0.0056  0.0277  0.9271  -2.9260   0.0000   0.2348
   7.000   0.7427   0.00797   0.00328   0.0059  0.0266  0.9370  -3.2086   0.0000   0.2346
   7.500   0.7947   0.00838   0.00371   0.0064  0.0247  0.9463  -3.5270   0.0000   0.2339
   8.000   0.8474   0.00864   0.00399   0.0069  0.0244  0.9554  -3.9044   0.0000   0.2334
   8.500   0.8992   0.00894   0.00431   0.0075  0.0238  0.9638  -4.3199   0.0000   0.2327
   9.000   0.9502   0.00928   0.00465   0.0082  0.0229  0.9715  -4.7612   0.0000   0.2318
   9.500   0.9993   0.00971   0.00507   0.0093  0.0216  0.9793  -5.2092   0.0000   0.2306
  10.000   1.0474   0.01015   0.00555   0.0105  0.0208  0.9870  -5.6834   0.0000   0.2292
  10.500   1.1030   0.01053   0.00592   0.0100  0.0203  0.9911  -6.2633   0.0000   0.2295
  11.000   1.1577   0.01098   0.00636   0.0097  0.0192  0.9948  -6.8688   0.0000   0.2295
  11.500   1.2152   0.01159   0.00696   0.0085  0.0176  0.9959  -7.5097   0.0000   0.2302
  12.000   1.2732   0.01209   0.00747   0.0072  0.0170  0.9969  -8.1810   0.0000   0.2307
  12.500   1.3291   0.01272   0.00809   0.0063  0.0156  0.9982  -8.8626   0.0000   0.2309
  13.000   1.3834   0.01341   0.00879   0.0056  0.0144  0.9994  -9.5547   0.0000   0.2307
  13.500   1.4236   0.01410   0.00949   0.0078  0.0129  1.0000  -10.1775   0.0000   0.2284
  14.000   1.4518   0.01478   0.01020   0.0126  0.0117  1.0000  -10.7342   0.0000   0.2244
  14.500   1.4810   0.01564   0.01109   0.0169  0.0105  1.0000  -11.3082   0.0000   0.2209
  15.000   1.5123   0.01654   0.01204   0.0204  0.0097  1.0000  -11.9093   0.0000   0.2179
  15.500   1.5430   0.01760   0.01314   0.0237  0.0090  1.0000  -12.5170   0.0000   0.2151
  16.000   1.5698   0.01893   0.01454   0.0272  0.0081  1.0000  -13.1021   0.0000   0.2121
  16.500   1.5981   0.02018   0.01586   0.0302  0.0078  1.0000  -13.7361   0.0000   0.2095
  17.000   1.6221   0.02176   0.01752   0.0334  0.0074  1.0000  -14.3454   0.0000   0.2068
  17.500   1.6406   0.02378   0.01962   0.0368  0.0068  1.0000  -14.9125   0.0000   0.2040
  18.000   1.6576   0.02602   0.02196   0.0397  0.0065  1.0000  -15.4719   0.0000   0.2014
  18.500   1.6744   0.02842   0.02446   0.0421  0.0063  1.0000  -16.0511   0.0000   0.1990
  19.000   1.6861   0.03138   0.02754   0.0442  0.0061  1.0000  -16.5934   0.0000   0.1968
  19.500   1.6918   0.03510   0.03138   0.0458  0.0059  1.0000  -17.0760   0.0000   0.1947
  20.000   1.6904   0.03985   0.03626   0.0466  0.0057  1.0000  -17.4801   0.0000   0.1928
  20.500   1.6807   0.04604   0.04261   0.0463  0.0055  1.0000  -17.7827   0.0000   0.1915
  21.000   1.6603   0.05423   0.05099   0.0441  0.0052  1.0000  -17.9440   0.0000   0.1909
  21.500   1.6280   0.06494   0.06193   0.0398  0.0051  1.0000  -17.9343   0.0000   0.1915
  22.000   1.5743   0.07993   0.07719   0.0323  0.0051  1.0000  -17.6085   0.0000   0.1938
  22.500   1.4530   0.10744   0.10513   0.0171  0.0053  1.0000  -16.2701   0.0000   0.2008
  23.500   1.0022   0.22204   0.22097  -0.0560  0.0059  1.0000  -8.1820   0.0000   0.2684
  24.000   0.9949   0.23444   0.23339  -0.0647  0.0054  1.0000  -7.7734   0.0000   0.2768
  24.500   1.0024   0.24207   0.24105  -0.0707  0.0050  1.0000  -7.7780   0.0000   0.2812
  25.000   1.0053   0.25154   0.25056  -0.0778  0.0047  1.0000  -7.5870   0.0000   0.2870
  25.500   1.0143   0.25881   0.25784  -0.0837  0.0044  1.0000  -7.5929   0.0000   0.2910
  26.000   1.0223   0.26648   0.26553  -0.0899  0.0040  1.0000  -7.5323   0.0000   0.2953
  26.500   1.0309   0.27396   0.27304  -0.0961  0.0038  1.0000  -7.4760   0.0000   0.2993
  27.000   1.0359   0.28326   0.28238  -0.1031  0.0035  1.0000  -7.1907   0.0000   0.3048


