xflr5 v6.33

 Calculated polar for: NACA 0012 v1

 1 1 Reynolds number fixed          Mach number fixed         

 xtrf =   1.000 (top)        1.000 (bottom)
 Mach =   0.000     Re =     2.400 e 6     Ncrit =   9.000

  alpha     CL        CD       CDp       Cm    Top Xtr Bot Xtr   Cpmin    Chinge    XCp    
 ------- -------- --------- --------- -------- ------- ------- -------- --------- ---------
 -28.000  -0.6760   0.29973   0.29881   0.0771  1.0000  0.0032  -1.4669   0.0000   0.3374
 -27.500  -0.6703   0.29507   0.29414   0.0744  1.0000  0.0034  -1.4018   0.0000   0.3354
 -26.500  -1.0641   0.30210   0.30098   0.1369  1.0000  0.0042  -2.8741   0.0000   0.3413
 -25.000  -1.1047   0.24215   0.24090   0.1003  1.0000  0.0075  -7.7560   0.0000   0.3005
 -24.500  -1.1214   0.22749   0.22611   0.0887  1.0000  0.0080  -8.4898   0.0000   0.2891
 -24.000  -1.1314   0.21570   0.21422   0.0792  1.0000  0.0083  -8.8937   0.0000   0.2807
 -23.500  -1.1400   0.20474   0.20314   0.0702  1.0000  0.0084  -9.1825   0.0000   0.2732
 -23.000  -1.1472   0.19442   0.19275   0.0619  1.0000  0.0088  -9.3849   0.0000   0.2666
 -22.500  -1.1621   0.18254   0.18078   0.0525  1.0000  0.0090  -9.6765   0.0000   0.2588
 -22.000  -1.1884   0.16833   0.16644   0.0418  1.0000  0.0092  -10.0970   0.0000   0.2498
 -21.500  -1.2315   0.15118   0.14912   0.0296  1.0000  0.0093  -10.6844   0.0000   0.2395
 -21.000  -1.3023   0.12950   0.12718   0.0152  1.0000  0.0092  -11.5274   0.0000   0.2282
 -20.500  -1.3956   0.10517   0.10251   0.0009  1.0000  0.0091  -12.4852   0.0000   0.2182
 -20.000  -1.4825   0.08340   0.08040  -0.0107  1.0000  0.0090  -13.2273   0.0000   0.2117
 -19.500  -1.5449   0.06661   0.06331  -0.0192  1.0000  0.0090  -13.6264   0.0000   0.2079
 -19.000  -1.5839   0.05418   0.05063  -0.0251  1.0000  0.0091  -13.7401   0.0000   0.2058
 -18.500  -1.6039   0.04508   0.04132  -0.0289  1.0000  0.0092  -13.6414   0.0000   0.2050
 -18.000  -1.6106   0.03838   0.03444  -0.0309  1.0000  0.0094  -13.3989   0.0000   0.2051
 -17.500  -1.6078   0.03339   0.02929  -0.0313  1.0000  0.0096  -13.0617   0.0000   0.2060
 -17.000  -1.5985   0.02959   0.02535  -0.0306  1.0000  0.0098  -12.6731   0.0000   0.2076
 -16.500  -1.5839   0.02671   0.02233  -0.0288  1.0000  0.0101  -12.2486   0.0000   0.2096
 -16.000  -1.5643   0.02452   0.02003  -0.0264  1.0000  0.0102  -11.7861   0.0000   0.2119
 -15.500  -1.5505   0.02220   0.01757  -0.0226  1.0000  0.0107  -11.3785   0.0000   0.2152
 -15.000  -1.5276   0.02066   0.01594  -0.0188  1.0000  0.0111  -10.9002   0.0000   0.2184
 -14.500  -1.4986   0.01948   0.01468  -0.0154  1.0000  0.0116  -10.3861   0.0000   0.2214
 -14.000  -1.4609   0.01846   0.01359  -0.0132  1.0000  0.0120  -9.8287   0.0000   0.2235
 -13.500  -1.4232   0.01728   0.01233  -0.0110  1.0000  0.0127  -9.2913   0.0000   0.2256
 -13.000  -1.3818   0.01629   0.01130  -0.0093  1.0000  0.0134  -8.7387   0.0000   0.2275
 -12.500  -1.3374   0.01548   0.01043  -0.0078  1.0000  0.0140  -8.1822   0.0000   0.2292
 -12.000  -1.2932   0.01459   0.00949  -0.0063  1.0000  0.0149  -7.6654   0.0000   0.2309
 -11.500  -1.2472   0.01384   0.00872  -0.0050  1.0000  0.0159  -7.1518   0.0000   0.2326
 -11.000  -1.2008   0.01314   0.00798  -0.0036  1.0000  0.0170  -6.6531   0.0000   0.2343
 -10.500  -1.1549   0.01249   0.00731  -0.0020  1.0000  0.0183  -6.1699   0.0000   0.2363
 -10.000  -1.1103   0.01188   0.00669  -0.0001  1.0000  0.0198  -5.7081   0.0000   0.2386
  -9.500  -1.0661   0.01137   0.00617   0.0021  1.0000  0.0214  -5.2729   0.0000   0.2413
  -9.000  -1.0240   0.01083   0.00562   0.0047  1.0000  0.0236  -4.8692   0.0000   0.2445
  -8.500  -0.9690   0.01030   0.00510   0.0045  0.9991  0.0263  -4.4278   0.0000   0.2452
  -8.000  -0.9045   0.00978   0.00461   0.0023  0.9972  0.0300  -3.9736   0.0000   0.2436
  -7.500  -0.8394   0.00926   0.00413   0.0000  0.9953  0.0351  -3.5514   0.0000   0.2416
  -7.000  -0.7740   0.00877   0.00369  -0.0023  0.9930  0.0420  -3.1485   0.0000   0.2391
  -6.500  -0.7100   0.00831   0.00328  -0.0042  0.9891  0.0510  -2.7840   0.0000   0.2365
  -6.000  -0.6515   0.00787   0.00292  -0.0049  0.9805  0.0632  -2.4574   0.0000   0.2354
  -5.500  -0.5976   0.00746   0.00259  -0.0044  0.9667  0.0793  -2.1663   0.0000   0.2359
  -5.000  -0.5453   0.00707   0.00228  -0.0035  0.9485  0.1010  -1.9039   0.0000   0.2372
  -4.500  -0.4927   0.00670   0.00199  -0.0027  0.9257  0.1294  -1.6614   0.0000   0.2384
  -4.000  -0.4395   0.00636   0.00172  -0.0021  0.8982  0.1649  -1.4394   0.0000   0.2395
  -3.500  -0.3858   0.00605   0.00148  -0.0016  0.8653  0.2067  -1.2386   0.0000   0.2405
  -3.000  -0.3316   0.00579   0.00129  -0.0011  0.8275  0.2527  -1.0604   0.0000   0.2414
  -2.500  -0.2770   0.00558   0.00112  -0.0008  0.7856  0.3010  -0.9032   0.0000   0.2421
  -2.000  -0.2221   0.00542   0.00100  -0.0005  0.7407  0.3506  -0.7680   0.0000   0.2427
  -1.500  -0.1669   0.00529   0.00090  -0.0003  0.6938  0.4006  -0.6536   0.0000   0.2432
  -1.000  -0.1114   0.00521   0.00084  -0.0002  0.6458  0.4504  -0.5583   0.0000   0.2435
  -0.500  -0.0557   0.00516   0.00080  -0.0001  0.5974  0.4997  -0.4794   0.0000   0.2437
   0.000   0.0000   0.00514   0.00079  -0.0000  0.5487  0.5487  -0.4132   0.0000   0.4545
   0.500   0.0557   0.00516   0.00080   0.0001  0.4997  0.5974  -0.4794   0.0000   0.2437
   1.000   0.1114   0.00521   0.00084   0.0002  0.4504  0.6458  -0.5583   0.0000   0.2435
   1.500   0.1669   0.00529   0.00090   0.0004  0.4006  0.6938  -0.6536   0.0000   0.2432
   2.000   0.2221   0.00542   0.00100   0.0006  0.3506  0.7407  -0.7680   0.0000   0.2427
   2.500   0.2770   0.00558   0.00112   0.0008  0.3010  0.7856  -0.9032   0.0000   0.2421
   3.000   0.3316   0.00579   0.00129   0.0012  0.2526  0.8275  -1.0604   0.0000   0.2414
   3.500   0.3858   0.00605   0.00148   0.0016  0.2066  0.8653  -1.2387   0.0000   0.2405
   4.000   0.4395   0.00636   0.00172   0.0022  0.1649  0.8982  -1.4394   0.0000   0.2395
   4.500   0.4928   0.00670   0.00199   0.0028  0.1294  0.9257  -1.6614   0.0000   0.2384
   5.000   0.5454   0.00707   0.00228   0.0037  0.1010  0.9485  -1.9040   0.0000   0.2372
   5.500   0.5976   0.00746   0.00259   0.0046  0.0793  0.9667  -2.1663   0.0000   0.2359
   6.000   0.6515   0.00787   0.00292   0.0051  0.0632  0.9805  -2.4575   0.0000   0.2354
   6.500   0.7101   0.00831   0.00328   0.0044  0.0510  0.9891  -2.7841   0.0000   0.2365
   7.000   0.7740   0.00877   0.00369   0.0025  0.0420  0.9930  -3.1486   0.0000   0.2391
   7.500   0.8395   0.00926   0.00413   0.0002  0.0351  0.9953  -3.5516   0.0000   0.2416
   8.000   0.9045   0.00978   0.00461  -0.0020  0.0300  0.9972  -3.9738   0.0000   0.2437
   8.500   0.9691   0.01030   0.00510  -0.0042  0.0263  0.9991  -4.4280   0.0000   0.2452
   9.000   1.0239   0.01083   0.00562  -0.0042  0.0236  1.0000  -4.8688   0.0000   0.2445
   9.500   1.0661   0.01137   0.00616  -0.0016  0.0214  1.0000  -5.2726   0.0000   0.2413
  10.000   1.1103   0.01188   0.00669   0.0005  0.0198  1.0000  -5.7079   0.0000   0.2386
  10.500   1.1549   0.01249   0.00731   0.0025  0.0183  1.0000  -6.1699   0.0000   0.2363
  11.000   1.2008   0.01314   0.00798   0.0042  0.0170  1.0000  -6.6533   0.0000   0.2343
  11.500   1.2473   0.01384   0.00872   0.0056  0.0159  1.0000  -7.1522   0.0000   0.2326
  12.000   1.2933   0.01459   0.00949   0.0070  0.0149  1.0000  -7.6660   0.0000   0.2310
  12.500   1.3376   0.01548   0.01043   0.0085  0.0140  1.0000  -8.1830   0.0000   0.2292
  13.000   1.3820   0.01629   0.01130   0.0100  0.0134  1.0000  -8.7398   0.0000   0.2275
  13.500   1.4235   0.01728   0.01233   0.0118  0.0127  1.0000  -9.2926   0.0000   0.2257
  14.000   1.4612   0.01846   0.01359   0.0140  0.0120  1.0000  -9.8305   0.0000   0.2235
  14.500   1.4989   0.01948   0.01468   0.0162  0.0116  1.0000  -10.3884   0.0000   0.2214
  15.000   1.5281   0.02066   0.01594   0.0197  0.0111  1.0000  -10.9036   0.0000   0.2185
  15.500   1.5511   0.02220   0.01757   0.0235  0.0107  1.0000  -11.3824   0.0000   0.2153
  16.000   1.5651   0.02452   0.02002   0.0273  0.0102  1.0000  -11.7913   0.0000   0.2120
  16.500   1.5848   0.02669   0.02231   0.0298  0.0101  1.0000  -12.2548   0.0000   0.2097
  17.000   1.5996   0.02957   0.02533   0.0315  0.0098  1.0000  -12.6804   0.0000   0.2077
  17.500   1.6090   0.03336   0.02925   0.0324  0.0096  1.0000  -13.0705   0.0000   0.2061
  18.000   1.6119   0.03834   0.03440   0.0319  0.0094  1.0000  -13.4095   0.0000   0.2052
  18.500   1.6055   0.04503   0.04127   0.0300  0.0092  1.0000  -13.6537   0.0000   0.2051
  19.000   1.5856   0.05411   0.05056   0.0262  0.0091  1.0000  -13.7542   0.0000   0.2059
  19.500   1.5468   0.06653   0.06323   0.0202  0.0090  1.0000  -13.6418   0.0000   0.2080
  20.000   1.4845   0.08331   0.08031   0.0116  0.0090  1.0000  -13.2439   0.0000   0.2118
  20.500   1.3975   0.10510   0.10244  -0.0000  0.0091  1.0000  -12.5013   0.0000   0.2184
  21.000   1.3039   0.12953   0.12721  -0.0145  0.0092  1.0000  -11.5400   0.0000   0.2283
  21.500   1.2328   0.15126   0.14920  -0.0290  0.0093  1.0000  -10.6932   0.0000   0.2397
  22.000   1.1896   0.16846   0.16657  -0.0414  0.0092  1.0000  -10.1037   0.0000   0.2499
  22.500   1.1632   0.18269   0.18093  -0.0521  0.0090  1.0000  -9.6824   0.0000   0.2590
  23.000   1.1484   0.19462   0.19295  -0.0615  0.0087  1.0000  -9.3913   0.0000   0.2668
  23.500   1.1412   0.20503   0.20343  -0.0699  0.0084  1.0000  -9.1875   0.0000   0.2734
  24.000   1.1326   0.21607   0.21458  -0.0789  0.0083  1.0000  -8.8984   0.0000   0.2809
  24.500   1.1227   0.22794   0.22657  -0.0886  0.0079  1.0000  -8.4942   0.0000   0.2893
  25.000   1.1061   0.24271   0.24146  -0.1001  0.0075  1.0000  -7.7648   0.0000   0.3006
  25.500   0.6508   0.27214   0.27117  -0.0640  0.0046  1.0000  -1.5099   0.0000   0.3255
  26.000   0.6573   0.27668   0.27572  -0.0666  0.0044  1.0000  -1.5787   0.0000   0.3275
  26.500   0.6639   0.28085   0.27990  -0.0691  0.0043  1.0000  -1.6758   0.0000   0.3293
  27.000   0.6679   0.28648   0.28554  -0.0716  0.0042  1.0000  -1.6305   0.0000   0.3317
  27.500   0.6696   0.29477   0.29384  -0.0742  0.0034  1.0000  -1.4005   0.0000   0.3352
  28.000   0.6753   0.29949   0.29857  -0.0769  0.0032  1.0000  -1.4654   0.0000   0.3372
  28.500   0.6811   0.30379   0.30288  -0.0795  0.0031  1.0000  -1.5557   0.0000   0.3390
  29.000   0.6849   0.30932   0.30842  -0.0821  0.0031  1.0000  -1.5346   0.0000   0.3411
  29.500   0.6869   0.31795   0.31706  -0.0845  0.0025  1.0000  -1.2888   0.0000   0.3442
  30.000   0.6917   0.32283   0.32195  -0.0873  0.0023  1.0000  -1.3464   0.0000   0.3462
  30.500   0.6964   0.32730   0.32643  -0.0900  0.0022  1.0000  -1.4227   0.0000   0.3480
  31.000   0.7006   0.33171   0.33085  -0.0927  0.0021  1.0000  -1.5037   0.0000   0.3497
  31.500   0.7020   0.34101   0.34016  -0.0950  0.0019  1.0000  -1.2063   0.0000   0.3526
  32.000   0.7056   0.34642   0.34558  -0.0977  0.0016  1.0000  -1.2223   0.0000   0.3546
  32.500   0.7094   0.35112   0.35029  -0.1004  0.0015  1.0000  -1.2827   0.0000   0.3564
  33.000   0.7129   0.35547   0.35465  -0.1032  0.0014  1.0000  -1.3614   0.0000   0.3582
  33.500   0.7153   0.36095   0.36014  -0.1059  0.0014  1.0000  -1.3598   0.0000   0.3601
  34.000   0.7170   0.36947   0.36867  -0.1082  0.0012  1.0000  -1.1320   0.0000   0.3624
  34.500   0.7195   0.37476   0.37397  -0.1109  0.0010  1.0000  -1.1497   0.0000   0.3643
  35.000   0.7220   0.37944   0.37867  -0.1136  0.0009  1.0000  -1.1973   0.0000   0.3661
  35.500   0.7242   0.38363   0.38287  -0.1165  0.0008  1.0000  -1.2705   0.0000   0.3679


