xflr5 v6.33

 Calculated polar for: NACA 0012-64

 1 1 Reynolds number fixed          Mach number fixed         

 xtrf =   1.000 (top)        1.000 (bottom)
 Mach =   0.000     Re =     4.200 e 6     Ncrit =   9.000

  alpha     CL        CD       CDp       Cm    Top Xtr Bot Xtr   Cpmin    Chinge    XCp    
 ------- -------- --------- --------- -------- ------- ------- -------- --------- ---------
 -26.500  -1.0272   0.27327   0.27231   0.0959  1.0000  0.0039  -7.3737   0.0000   0.2996
 -26.000  -1.0171   0.26660   0.26562   0.0901  1.0000  0.0042  -7.3717   0.0000   0.2960
 -25.500  -1.0101   0.25856   0.25757   0.0836  1.0000  0.0046  -7.4835   0.0000   0.2914
 -25.000  -1.0019   0.25112   0.25011   0.0776  1.0000  0.0049  -7.5121   0.0000   0.2871
 -24.500  -0.9998   0.24147   0.24040   0.0704  1.0000  0.0051  -7.7351   0.0000   0.2810
 -24.000  -0.9919   0.23403   0.23297   0.0644  1.0000  0.0056  -7.7246   0.0000   0.2768
 -23.500  -0.9965   0.22267   0.22156   0.0563  1.0000  0.0061  -8.0559   0.0000   0.2691
 -23.000  -1.0145   0.20763   0.20643   0.0459  1.0000  0.0064  -8.6622   0.0000   0.2585
 -22.500  -1.0787   0.18185   0.18045   0.0286  1.0000  0.0066  -10.1198   0.0000   0.2400
 -22.000  -1.5384   0.08533   0.08266  -0.0298  1.0000  0.0056  -17.1395   0.0000   0.1949
 -21.500  -1.6041   0.06809   0.06512  -0.0387  1.0000  0.0056  -17.6395   0.0000   0.1917
 -21.000  -1.6409   0.05648   0.05327  -0.0438  1.0000  0.0057  -17.7143   0.0000   0.1908
 -20.500  -1.6615   0.04802   0.04463  -0.0463  1.0000  0.0058  -17.5614   0.0000   0.1911
 -20.000  -1.6712   0.04165   0.03809  -0.0470  1.0000  0.0060  -17.2648   0.0000   0.1922
 -19.500  -1.6728   0.03673   0.03303  -0.0465  1.0000  0.0062  -16.8682   0.0000   0.1939
 -19.000  -1.6675   0.03285   0.02901  -0.0452  1.0000  0.0063  -16.3962   0.0000   0.1958
 -18.500  -1.6563   0.02974   0.02579  -0.0434  1.0000  0.0065  -15.8636   0.0000   0.1980
 -18.000  -1.6445   0.02690   0.02282  -0.0408  1.0000  0.0068  -15.3446   0.0000   0.2005
 -17.500  -1.6310   0.02437   0.02019  -0.0378  1.0000  0.0073  -14.8204   0.0000   0.2032
 -17.000  -1.6114   0.02239   0.01813  -0.0347  1.0000  0.0077  -14.2451   0.0000   0.2059
 -16.500  -1.5869   0.02083   0.01648  -0.0317  1.0000  0.0081  -13.6340   0.0000   0.2085
 -16.000  -1.5620   0.01933   0.01491  -0.0283  1.0000  0.0087  -13.0350   0.0000   0.2113
 -15.500  -1.5349   0.01802   0.01352  -0.0249  1.0000  0.0095  -12.4465   0.0000   0.2142
 -15.000  -1.5035   0.01700   0.01245  -0.0218  1.0000  0.0100  -11.8350   0.0000   0.2169
 -14.500  -1.4740   0.01594   0.01135  -0.0181  1.0000  0.0112  -11.2522   0.0000   0.2200
 -14.000  -1.4444   0.01514   0.01051  -0.0139  1.0000  0.0121  -10.6752   0.0000   0.2235
 -13.500  -1.4158   0.01439   0.00974  -0.0093  1.0000  0.0136  -10.1183   0.0000   0.2274
 -13.000  -1.3845   0.01382   0.00915  -0.0051  0.9998  0.0146  -9.5525   0.0000   0.2311
 -12.500  -1.3307   0.01308   0.00840  -0.0057  0.9986  0.0161  -8.8645   0.0000   0.2313
 -12.000  -1.2745   0.01247   0.00779  -0.0067  0.9973  0.0173  -8.1810   0.0000   0.2311
 -11.500  -1.2171   0.01189   0.00719  -0.0079  0.9962  0.0182  -7.5151   0.0000   0.2306
 -11.000  -1.1588   0.01132   0.00664  -0.0092  0.9953  0.0196  -6.8680   0.0000   0.2299
 -10.500  -1.1019   0.01088   0.00621  -0.0101  0.9928  0.0205  -6.2505   0.0000   0.2294
 -10.000  -1.0455   0.01049   0.00582  -0.0108  0.9892  0.0209  -5.6685   0.0000   0.2289
  -9.500  -0.9946   0.00993   0.00523  -0.0103  0.9832  0.0223  -5.1861   0.0000   0.2295
  -9.000  -0.9448   0.00953   0.00484  -0.0094  0.9760  0.0233  -4.7343   0.0000   0.2305
  -8.500  -0.8946   0.00920   0.00449  -0.0085  0.9683  0.0241  -4.2970   0.0000   0.2315
  -8.000  -0.8432   0.00889   0.00417  -0.0078  0.9599  0.0246  -3.8854   0.0000   0.2323
  -7.500  -0.7917   0.00851   0.00376  -0.0071  0.9511  0.0257  -3.5173   0.0000   0.2331
  -7.000  -0.7396   0.00815   0.00339  -0.0066  0.9422  0.0272  -3.1949   0.0000   0.2336
  -6.500  -0.6865   0.00785   0.00308  -0.0062  0.9325  0.0282  -2.9139   0.0000   0.2340
  -6.000  -0.6328   0.00760   0.00280  -0.0059  0.9218  0.0289  -2.6399   0.0000   0.2341
  -5.500  -0.5788   0.00732   0.00251  -0.0057  0.9109  0.0303  -2.3772   0.0000   0.2339
  -5.000  -0.5248   0.00706   0.00224  -0.0054  0.8982  0.0328  -2.1225   0.0000   0.2337
  -4.500  -0.4704   0.00681   0.00200  -0.0052  0.8855  0.0377  -1.8758   0.0000   0.2332
  -3.500  -0.3626   0.00621   0.00154  -0.0047  0.8578  0.0776  -1.4283   0.0000   0.2319
  -3.000  -0.3080   0.00597   0.00137  -0.0046  0.8427  0.1006  -1.2219   0.0000   0.2302
  -2.500  -0.2545   0.00566   0.00119  -0.0042  0.8248  0.1461  -1.0363   0.0000   0.2286
  -2.000  -0.2012   0.00541   0.00105  -0.0038  0.7979  0.1962  -0.8613   0.0000   0.2264
  -1.500  -0.1499   0.00506   0.00089  -0.0030  0.7625  0.2854  -0.6969   0.0000   0.2251
  -1.000  -0.1008   0.00454   0.00073  -0.0019  0.7284  0.4251  -0.5431   0.0000   0.2264
  -0.500  -0.0501   0.00424   0.00064  -0.0010  0.6861  0.5284  -0.4237   0.0000   0.2247
   0.000   0.0000   0.00427   0.00063  -0.0000  0.6002  0.6002  -0.3386   0.0000   0.4943
   0.500   0.0501   0.00424   0.00064   0.0010  0.5284  0.6861  -0.4237   0.0000   0.2247
   1.000   0.1008   0.00454   0.00073   0.0019  0.4251  0.7284  -0.5431   0.0000   0.2264
   1.500   0.1499   0.00506   0.00089   0.0030  0.2854  0.7625  -0.6969   0.0000   0.2251
   2.000   0.2012   0.00541   0.00105   0.0038  0.1962  0.7979  -0.8613   0.0000   0.2264
   2.500   0.2545   0.00566   0.00119   0.0042  0.1461  0.8248  -1.0363   0.0000   0.2286
   3.000   0.3080   0.00597   0.00137   0.0045  0.1006  0.8427  -1.2219   0.0000   0.2303
   3.500   0.3626   0.00621   0.00154   0.0047  0.0775  0.8578  -1.4284   0.0000   0.2319
   4.500   0.4704   0.00681   0.00200   0.0052  0.0377  0.8855  -1.8759   0.0000   0.2333
   5.000   0.5248   0.00706   0.00224   0.0054  0.0328  0.8982  -2.1226   0.0000   0.2338
   5.500   0.5789   0.00732   0.00251   0.0056  0.0303  0.9109  -2.3773   0.0000   0.2340
   6.000   0.6329   0.00760   0.00280   0.0059  0.0289  0.9218  -2.6401   0.0000   0.2341
   6.500   0.6866   0.00785   0.00308   0.0061  0.0282  0.9325  -2.9141   0.0000   0.2340
   7.000   0.7397   0.00815   0.00339   0.0065  0.0272  0.9422  -3.1952   0.0000   0.2337
   7.500   0.7919   0.00851   0.00376   0.0071  0.0257  0.9511  -3.5177   0.0000   0.2331
   8.000   0.8433   0.00889   0.00417   0.0077  0.0246  0.9599  -3.8859   0.0000   0.2324
   8.500   0.8947   0.00920   0.00449   0.0084  0.0241  0.9682  -4.2976   0.0000   0.2316
   9.000   0.9449   0.00953   0.00484   0.0093  0.0233  0.9760  -4.7350   0.0000   0.2306
   9.500   0.9948   0.00993   0.00523   0.0102  0.0223  0.9832  -5.1869   0.0000   0.2295
  10.000   1.0457   0.01049   0.00582   0.0108  0.0209  0.9892  -5.6693   0.0000   0.2289
  10.500   1.1021   0.01088   0.00621   0.0101  0.0205  0.9928  -6.2514   0.0000   0.2294
  11.000   1.1590   0.01132   0.00664   0.0092  0.0196  0.9953  -6.8691   0.0000   0.2299
  11.500   1.2173   0.01189   0.00719   0.0078  0.0182  0.9962  -7.5163   0.0000   0.2307
  12.000   1.2747   0.01247   0.00779   0.0066  0.0173  0.9973  -8.1824   0.0000   0.2312
  12.500   1.3310   0.01308   0.00840   0.0056  0.0161  0.9986  -8.8661   0.0000   0.2314
  13.000   1.3848   0.01382   0.00914   0.0050  0.0146  0.9998  -9.5544   0.0000   0.2312
  13.500   1.4158   0.01439   0.00974   0.0093  0.0136  1.0000  -10.1183   0.0000   0.2274
  14.000   1.4447   0.01514   0.01051   0.0138  0.0121  1.0000  -10.6776   0.0000   0.2236
  14.500   1.4746   0.01594   0.01135   0.0179  0.0112  1.0000  -11.2566   0.0000   0.2201
  15.000   1.5043   0.01700   0.01244   0.0216  0.0100  1.0000  -11.8404   0.0000   0.2170
  15.500   1.5357   0.01801   0.01352   0.0247  0.0094  1.0000  -12.4527   0.0000   0.2143
  16.000   1.5630   0.01933   0.01490   0.0281  0.0087  1.0000  -13.0420   0.0000   0.2115
  16.500   1.5881   0.02082   0.01647   0.0315  0.0080  1.0000  -13.6428   0.0000   0.2087
  17.000   1.6127   0.02238   0.01812   0.0345  0.0077  1.0000  -14.2549   0.0000   0.2061
  17.500   1.6323   0.02436   0.02018   0.0375  0.0073  1.0000  -14.8316   0.0000   0.2034
  18.000   1.6460   0.02688   0.02281   0.0406  0.0068  1.0000  -15.3569   0.0000   0.2006
  18.500   1.6581   0.02971   0.02575   0.0431  0.0065  1.0000  -15.8800   0.0000   0.1982
  19.000   1.6696   0.03280   0.02897   0.0449  0.0063  1.0000  -16.4148   0.0000   0.1960
  19.500   1.6750   0.03667   0.03297   0.0462  0.0062  1.0000  -16.8887   0.0000   0.1941
  20.000   1.6737   0.04157   0.03801   0.0467  0.0060  1.0000  -17.2878   0.0000   0.1924
  20.500   1.6642   0.04793   0.04453   0.0460  0.0058  1.0000  -17.5866   0.0000   0.1913
  21.000   1.6437   0.05637   0.05317   0.0434  0.0057  1.0000  -17.7414   0.0000   0.1910
  21.500   1.6072   0.06796   0.06499   0.0384  0.0055  1.0000  -17.6697   0.0000   0.1920
  22.000   1.5416   0.08519   0.08252   0.0294  0.0055  1.0000  -17.1718   0.0000   0.1951
  22.500   1.3786   0.12060   0.11848   0.0097  0.0059  1.0000  -15.1808   0.0000   0.2055
  23.000   1.0160   0.20811   0.20691  -0.0464  0.0064  1.0000  -8.6666   0.0000   0.2589
  23.500   0.9981   0.22328   0.22217  -0.0567  0.0061  1.0000  -8.0617   0.0000   0.2695
  24.000   0.9936   0.23476   0.23369  -0.0649  0.0056  1.0000  -7.7307   0.0000   0.2771
  24.500   1.0015   0.24229   0.24123  -0.0709  0.0051  1.0000  -7.7417   0.0000   0.2814
  25.000   1.0037   0.25206   0.25105  -0.0781  0.0049  1.0000  -7.5191   0.0000   0.2875
  25.500   1.0120   0.25964   0.25866  -0.0841  0.0046  1.0000  -7.4899   0.0000   0.2917
  26.000   1.0191   0.26777   0.26680  -0.0906  0.0042  1.0000  -7.3817   0.0000   0.2964
  26.500   1.0291   0.27463   0.27368  -0.0964  0.0039  1.0000  -7.3773   0.0000   0.2999


