xflr5 v6.33

 Calculated polar for: NACA 0012-64

 1 1 Reynolds number fixed          Mach number fixed         

 xtrf =   1.000 (top)        1.000 (bottom)
 Mach =   0.000     Re =     0.700 e 6     Ncrit =   9.000

  alpha     CL        CD       CDp       Cm    Top Xtr Bot Xtr   Cpmin    Chinge    XCp    
 ------- -------- --------- --------- -------- ------- ------- -------- --------- ---------
 -28.000  -1.0201   0.32507   0.32299   0.1213  1.0000  0.0065  -2.3470   0.0000   0.3270
 -27.500  -1.0063   0.32106   0.31897   0.1168  1.0000  0.0067  -2.1989   0.0000   0.3257
 -27.000  -0.9918   0.31653   0.31443   0.1120  1.0000  0.0069  -2.1086   0.0000   0.3239
 -26.500  -0.9768   0.31141   0.30930   0.1070  1.0000  0.0074  -2.0630   0.0000   0.3219
 -26.000  -0.9616   0.30288   0.30077   0.1003  1.0000  0.0081  -2.4255   0.0000   0.3173
 -25.500  -0.9464   0.29871   0.29658   0.0967  1.0000  0.0083  -2.2368   0.0000   0.3166
 -25.000  -0.9310   0.29410   0.29197   0.0922  1.0000  0.0086  -2.1304   0.0000   0.3148
 -24.500  -0.9152   0.28879   0.28664   0.0875  1.0000  0.0091  -2.0822   0.0000   0.3125
 -21.000  -0.5344   0.21095   0.20901   0.0167  1.0000  0.0150  -1.5237   0.0000   0.2634
 -20.500  -0.5258   0.20689   0.20494   0.0146  1.0000  0.0156  -1.4512   0.0000   0.2605
 -18.500  -1.0823   0.11121   0.10857  -0.0160  1.0000  0.0169  -9.2678   0.0000   0.2080
 -18.000  -1.1641   0.08715   0.08413  -0.0298  1.0000  0.0167  -10.1190   0.0000   0.1983
 -17.500  -1.2114   0.07087   0.06749  -0.0392  1.0000  0.0169  -10.4491   0.0000   0.1928
 -17.000  -1.2389   0.05938   0.05564  -0.0451  1.0000  0.0172  -10.5041   0.0000   0.1901
 -16.500  -1.2549   0.05091   0.04683  -0.0483  1.0000  0.0177  -10.4140   0.0000   0.1893
 -16.000  -1.2630   0.04456   0.04032  -0.0492  1.0000  0.0183  -10.2145   0.0000   0.1901
 -15.500  -1.2526   0.04077   0.03641  -0.0491  1.0000  0.0189  -9.8362   0.0000   0.1910
 -15.000  -1.2414   0.03739   0.03284  -0.0480  1.0000  0.0198  -9.4618   0.0000   0.1925
 -14.500  -1.2296   0.03437   0.02953  -0.0461  1.0000  0.0208  -9.0953   0.0000   0.1947
 -14.000  -1.2209   0.03118   0.02616  -0.0430  1.0000  0.0217  -8.7514   0.0000   0.1979
 -13.500  -1.1998   0.02943   0.02433  -0.0402  1.0000  0.0226  -8.3005   0.0000   0.2006
 -13.000  -1.1783   0.02784   0.02255  -0.0368  1.0000  0.0238  -7.8648   0.0000   0.2037
 -12.500  -1.1561   0.02666   0.02112  -0.0327  1.0000  0.0247  -7.4352   0.0000   0.2075
 -12.000  -1.1359   0.02436   0.01874  -0.0283  1.0000  0.0260  -7.0392   0.0000   0.2115
 -11.500  -1.1149   0.02335   0.01764  -0.0229  1.0000  0.0271  -6.6243   0.0000   0.2167
 -11.000  -1.0913   0.02244   0.01658  -0.0177  1.0000  0.0284  -6.2105   0.0000   0.2217
 -10.500  -1.0693   0.02104   0.01502  -0.0121  1.0000  0.0297  -5.8281   0.0000   0.2273
 -10.000  -1.0471   0.01995   0.01391  -0.0064  1.0000  0.0310  -5.4556   0.0000   0.2331
  -9.500  -1.0226   0.01909   0.01295  -0.0009  1.0000  0.0322  -5.1029   0.0000   0.2390
  -9.000  -0.9957   0.01833   0.01209   0.0042  1.0000  0.0335  -4.7569   0.0000   0.2447
  -8.500  -0.9523   0.01693   0.01059   0.0056  0.9984  0.0351  -4.3770   0.0000   0.2469
  -8.000  -0.8913   0.01583   0.00947   0.0035  0.9956  0.0370  -3.9314   0.0000   0.2455
  -7.500  -0.8301   0.01496   0.00852   0.0016  0.9919  0.0389  -3.5327   0.0000   0.2439
  -7.000  -0.7684   0.01386   0.00735  -0.0005  0.9885  0.0410  -3.1741   0.0000   0.2418
  -6.500  -0.7069   0.01302   0.00650  -0.0024  0.9845  0.0436  -2.8563   0.0000   0.2395
  -6.000  -0.6425   0.01232   0.00575  -0.0048  0.9807  0.0467  -2.5720   0.0000   0.2358
  -5.500  -0.5739   0.01158   0.00504  -0.0081  0.9785  0.0533  -2.3017   0.0000   0.2294
  -5.000  -0.5137   0.01082   0.00442  -0.0095  0.9726  0.0735  -2.0582   0.0000   0.2253
  -4.500  -0.4482   0.01006   0.00387  -0.0122  0.9694  0.1151  -1.8014   0.0000   0.2168
  -4.000  -0.3937   0.00929   0.00342  -0.0123  0.9612  0.1822  -1.5825   0.0000   0.2129
  -3.500  -0.3432   0.00842   0.00297  -0.0117  0.9523  0.2837  -1.3822   0.0000   0.2105
  -3.000  -0.3016   0.00717   0.00250  -0.0092  0.9414  0.4768  -1.2045   0.0000   0.2144
  -2.500  -0.2585   0.00634   0.00222  -0.0065  0.9299  0.6214  -1.0382   0.0000   0.2200
  -2.000  -0.2104   0.00592   0.00208  -0.0045  0.9186  0.7091  -0.8715   0.0000   0.2238
  -1.500  -0.1588   0.00570   0.00200  -0.0033  0.9068  0.7613  -0.7060   0.0000   0.2249
  -1.000  -0.1056   0.00558   0.00194  -0.0023  0.8939  0.7968  -0.5465   0.0000   0.2233
  -0.500  -0.0524   0.00550   0.00193  -0.0013  0.8784  0.8274  -0.4244   0.0000   0.2198
   0.000   0.0000   0.00546   0.00190  -0.0000  0.8555  0.8555  -0.3369   0.0000   0.4692
   0.500   0.0524   0.00550   0.00193   0.0013  0.8274  0.8784  -0.4244   0.0000   0.2198
   1.000   0.1056   0.00558   0.00194   0.0023  0.7968  0.8939  -0.5465   0.0000   0.2233
   1.500   0.1588   0.00570   0.00200   0.0033  0.7613  0.9068  -0.7060   0.0000   0.2249
   2.000   0.2104   0.00592   0.00208   0.0045  0.7091  0.9186  -0.8715   0.0000   0.2238
   2.500   0.2585   0.00634   0.00222   0.0065  0.6214  0.9299  -1.0382   0.0000   0.2201
   3.000   0.3016   0.00717   0.00250   0.0092  0.4768  0.9414  -1.2045   0.0000   0.2144
   3.500   0.3432   0.00842   0.00297   0.0117  0.2837  0.9523  -1.3822   0.0000   0.2105
   4.000   0.3938   0.00929   0.00342   0.0123  0.1822  0.9612  -1.5826   0.0000   0.2129
   4.500   0.4482   0.01006   0.00387   0.0122  0.1151  0.9694  -1.8015   0.0000   0.2168
   5.000   0.5137   0.01082   0.00442   0.0095  0.0735  0.9726  -2.0582   0.0000   0.2253
   5.500   0.5740   0.01158   0.00504   0.0081  0.0533  0.9785  -2.3018   0.0000   0.2294
   6.000   0.6425   0.01232   0.00575   0.0048  0.0467  0.9807  -2.5721   0.0000   0.2358
   6.500   0.7070   0.01302   0.00650   0.0024  0.0436  0.9845  -2.8564   0.0000   0.2395
   7.000   0.7685   0.01386   0.00735   0.0005  0.0410  0.9886  -3.1743   0.0000   0.2418
   7.500   0.8302   0.01495   0.00852  -0.0016  0.0389  0.9919  -3.5330   0.0000   0.2440
   8.000   0.8914   0.01583   0.00947  -0.0035  0.0370  0.9956  -3.9319   0.0000   0.2455
   8.500   0.9524   0.01693   0.01059  -0.0057  0.0351  0.9984  -4.3775   0.0000   0.2470
   9.000   0.9956   0.01833   0.01209  -0.0042  0.0335  1.0000  -4.7564   0.0000   0.2447
   9.500   1.0225   0.01908   0.01295   0.0009  0.0322  1.0000  -5.1025   0.0000   0.2390
  10.000   1.0470   0.01995   0.01390   0.0064  0.0310  1.0000  -5.4553   0.0000   0.2331
  10.500   1.0693   0.02104   0.01501   0.0121  0.0297  1.0000  -5.8280   0.0000   0.2273
  11.000   1.0914   0.02244   0.01658   0.0176  0.0284  1.0000  -6.2109   0.0000   0.2218
  11.500   1.1151   0.02335   0.01764   0.0229  0.0271  1.0000  -6.6257   0.0000   0.2167
  12.000   1.1363   0.02436   0.01874   0.0282  0.0260  1.0000  -7.0417   0.0000   0.2116
  12.500   1.1566   0.02666   0.02111   0.0326  0.0247  1.0000  -7.4383   0.0000   0.2076
  13.000   1.1790   0.02784   0.02255   0.0366  0.0238  1.0000  -7.8688   0.0000   0.2038
  13.500   1.2007   0.02943   0.02432   0.0400  0.0226  1.0000  -8.3057   0.0000   0.2007
  14.000   1.2219   0.03117   0.02615   0.0428  0.0217  1.0000  -8.7576   0.0000   0.1981
  14.500   1.2307   0.03436   0.02951   0.0459  0.0207  1.0000  -9.1024   0.0000   0.1949
  15.000   1.2427   0.03737   0.03281   0.0478  0.0198  1.0000  -9.4703   0.0000   0.1927
  15.500   1.2542   0.04072   0.03636   0.0489  0.0189  1.0000  -9.8476   0.0000   0.1912
  16.000   1.2648   0.04451   0.04026   0.0490  0.0183  1.0000  -10.2278   0.0000   0.1903
  16.500   1.2559   0.05096   0.04688   0.0480  0.0176  1.0000  -10.4189   0.0000   0.1896
  17.000   1.2409   0.05933   0.05560   0.0448  0.0172  1.0000  -10.5179   0.0000   0.1904
  17.500   1.2135   0.07082   0.06744   0.0389  0.0168  1.0000  -10.4645   0.0000   0.1931
  18.000   1.1663   0.08712   0.08410   0.0294  0.0167  1.0000  -10.1343   0.0000   0.1986
  18.500   1.0835   0.11140   0.10876   0.0155  0.0169  1.0000  -9.2700   0.0000   0.2084
  22.500   0.8537   0.26560   0.26343  -0.0691  0.0114  1.0000  -2.0934   0.0000   0.3020
  23.000   0.8699   0.27147   0.26930  -0.0737  0.0106  1.0000  -2.1206   0.0000   0.3047
  23.500   0.8863   0.27626   0.27411  -0.0778  0.0102  1.0000  -2.2416   0.0000   0.3066
  24.000   0.9029   0.28080   0.27866  -0.0810  0.0100  1.0000  -2.4367   0.0000   0.3072
  24.500   0.9173   0.29024   0.28810  -0.0881  0.0091  1.0000  -2.0851   0.0000   0.3129
  25.000   0.9331   0.29568   0.29354  -0.0928  0.0085  1.0000  -2.1349   0.0000   0.3151
  25.500   0.9485   0.30041   0.29828  -0.0973  0.0083  1.0000  -2.2432   0.0000   0.3170
  26.000   0.9638   0.30475   0.30264  -0.1009  0.0081  1.0000  -2.4333   0.0000   0.3176
  26.500   0.9792   0.31347   0.31136  -0.1077  0.0074  1.0000  -2.0664   0.0000   0.3223
  27.000   0.9942   0.31871   0.31661  -0.1126  0.0069  1.0000  -2.1134   0.0000   0.3243
  27.500   1.0087   0.32338   0.32128  -0.1175  0.0067  1.0000  -2.2053   0.0000   0.3261
  28.000   1.0226   0.32754   0.32546  -0.1219  0.0065  1.0000  -2.3557   0.0000   0.3273
  28.500   1.0377   0.33497   0.33290  -0.1279  0.0063  1.0000  -2.1363   0.0000   0.3303
  29.000   1.0523   0.34066   0.33860  -0.1332  0.0058  1.0000  -2.0956   0.0000   0.3323
  29.500   1.0661   0.34548   0.34343  -0.1383  0.0054  1.0000  -2.1314   0.0000   0.3341
  30.000   1.0792   0.34982   0.34779  -0.1434  0.0052  1.0000  -2.2189   0.0000   0.3356
  30.500   1.0913   0.35369   0.35168  -0.1482  0.0051  1.0000  -2.3627   0.0000   0.3368
  31.000   1.1056   0.36047   0.35846  -0.1542  0.0050  1.0000  -2.1847   0.0000   0.3393
  31.500   1.1192   0.36598   0.36399  -0.1597  0.0046  1.0000  -2.1283   0.0000   0.3410
  32.000   1.1315   0.37058   0.36860  -0.1651  0.0043  1.0000  -2.1526   0.0000   0.3425
  32.500   1.1432   0.37477   0.37281  -0.1705  0.0041  1.0000  -2.2080   0.0000   0.3440
  33.000   1.1540   0.37849   0.37655  -0.1758  0.0040  1.0000  -2.3104   0.0000   0.3453
  33.500   1.1648   0.38273   0.38080  -0.1812  0.0039  1.0000  -2.3549   0.0000   0.3467
  34.000   1.1779   0.38898   0.38706  -0.1871  0.0038  1.0000  -2.2028   0.0000   0.3485
  34.500   1.1891   0.39364   0.39175  -0.1927  0.0035  1.0000  -2.1849   0.0000   0.3499
  35.000   1.1993   0.39778   0.39590  -0.1983  0.0032  1.0000  -2.2072   0.0000   0.3513
  35.500   1.2089   0.40158   0.39971  -0.2039  0.0031  1.0000  -2.2535   0.0000   0.3525
  36.000   1.2176   0.40494   0.40310  -0.2095  0.0030  1.0000  -2.3311   0.0000   0.3537


