xflr5 v6.33

 Calculated polar for: NACA 0012 v1

 1 1 Reynolds number fixed          Mach number fixed         

 xtrf =   1.000 (top)        1.000 (bottom)
 Mach =   0.000     Re =     0.400 e 6     Ncrit =   9.000

  alpha     CL        CD       CDp       Cm    Top Xtr Bot Xtr   Cpmin    Chinge    XCp    
 ------- -------- --------- --------- -------- ------- ------- -------- --------- ---------
 -27.500  -1.0885   0.31558   0.31286   0.1465  1.0000  0.0116  -2.1209   0.0000   0.3458
 -27.000  -1.0735   0.30886   0.30614   0.1400  1.0000  0.0122  -2.3010   0.0000   0.3426
 -26.500  -1.0588   0.30505   0.30231   0.1360  1.0000  0.0125  -2.1483   0.0000   0.3421
 -26.000  -1.0436   0.30057   0.29781   0.1313  1.0000  0.0132  -2.0781   0.0000   0.3407
 -25.500  -1.0282   0.29395   0.29118   0.1251  1.0000  0.0142  -2.2376   0.0000   0.3375
 -25.000  -1.0128   0.28896   0.28618   0.1207  1.0000  0.0144  -2.1794   0.0000   0.3362
 -24.500  -0.9970   0.28451   0.28172   0.1163  1.0000  0.0150  -2.0927   0.0000   0.3349
 -24.000  -0.9811   0.27868   0.27588   0.1112  1.0000  0.0162  -2.1149   0.0000   0.3326
 -23.500  -0.9657   0.27262   0.26981   0.1060  1.0000  0.0167  -2.1435   0.0000   0.3300
 -23.000  -0.9492   0.26795   0.26513   0.1018  1.0000  0.0174  -2.0658   0.0000   0.3286
 -17.000  -1.0191   0.11449   0.11132   0.0023  1.0000  0.0230  -6.7295   0.0000   0.2285
 -16.500  -1.1149   0.08659   0.08280  -0.0164  1.0000  0.0224  -7.6468   0.0000   0.2124
 -16.000  -1.1561   0.07218   0.06800  -0.0252  1.0000  0.0225  -7.8910   0.0000   0.2064
 -15.500  -1.1822   0.06145   0.05692  -0.0309  1.0000  0.0229  -7.9585   0.0000   0.2032
 -15.000  -1.2023   0.05255   0.04762  -0.0347  1.0000  0.0233  -7.9556   0.0000   0.2016
 -14.500  -1.2196   0.04514   0.03973  -0.0364  1.0000  0.0239  -7.9162   0.0000   0.2018
 -14.000  -1.2163   0.04033   0.03472  -0.0355  1.0000  0.0246  -7.6997   0.0000   0.2033
 -13.500  -1.2061   0.03674   0.03095  -0.0339  1.0000  0.0254  -7.4198   0.0000   0.2054
 -13.000  -1.1962   0.03338   0.02728  -0.0310  1.0000  0.0264  -7.1611   0.0000   0.2084
 -12.500  -1.1804   0.03045   0.02414  -0.0276  1.0000  0.0275  -6.8631   0.0000   0.2117
 -12.000  -1.1589   0.02839   0.02195  -0.0240  1.0000  0.0288  -6.5303   0.0000   0.2152
 -11.500  -1.1333   0.02619   0.01955  -0.0206  1.0000  0.0305  -6.2065   0.0000   0.2185
 -11.000  -1.1009   0.02439   0.01763  -0.0179  1.0000  0.0323  -5.8414   0.0000   0.2211
 -10.500  -1.0667   0.02262   0.01579  -0.0153  1.0000  0.0345  -5.4743   0.0000   0.2237
 -10.000  -1.0303   0.02102   0.01407  -0.0127  1.0000  0.0372  -5.1077   0.0000   0.2263
  -9.500  -0.9922   0.01958   0.01254  -0.0102  1.0000  0.0404  -4.7591   0.0000   0.2290
  -9.000  -0.9534   0.01826   0.01119  -0.0078  1.0000  0.0443  -4.4127   0.0000   0.2318
  -8.500  -0.9143   0.01707   0.00997  -0.0051  1.0000  0.0490  -4.0725   0.0000   0.2349
  -8.000  -0.8747   0.01602   0.00887  -0.0024  1.0000  0.0552  -3.7513   0.0000   0.2383
  -7.500  -0.8355   0.01501   0.00788   0.0005  1.0000  0.0631  -3.4437   0.0000   0.2421
  -7.000  -0.7961   0.01406   0.00697   0.0033  1.0000  0.0737  -3.1438   0.0000   0.2462
  -6.500  -0.7560   0.01320   0.00619   0.0061  1.0000  0.0892  -2.8648   0.0000   0.2506
  -6.000  -0.7155   0.01240   0.00550   0.0088  1.0000  0.1126  -2.5910   0.0000   0.2553
  -5.500  -0.6742   0.01164   0.00493   0.0112  1.0000  0.1478  -2.3366   0.0000   0.2601
  -5.000  -0.6318   0.01096   0.00447   0.0134  1.0000  0.1961  -2.0900   0.0000   0.2650
  -4.500  -0.5856   0.01036   0.00414   0.0147  0.9996  0.2546  -1.8512   0.0000   0.2693
  -4.000  -0.5082   0.00971   0.00382   0.0095  0.9931  0.3325  -1.5674   0.0000   0.2633
  -3.500  -0.4314   0.00913   0.00354   0.0047  0.9853  0.4089  -1.3157   0.0000   0.2557
  -3.000  -0.3553   0.00859   0.00329   0.0003  0.9762  0.4819  -1.0959   0.0000   0.2456
  -2.500  -0.2803   0.00808   0.00305  -0.0037  0.9660  0.5511  -0.9079   0.0000   0.2316
  -2.000  -0.2130   0.00762   0.00282  -0.0058  0.9514  0.6146  -0.7586   0.0000   0.2179
  -1.500  -0.1558   0.00723   0.00263  -0.0053  0.9286  0.6723  -0.6439   0.0000   0.2109
  -1.000  -0.1027   0.00693   0.00249  -0.0038  0.8999  0.7263  -0.5522   0.0000   0.2076
  -0.500  -0.0513   0.00674   0.00240  -0.0020  0.8644  0.7771  -0.4770   0.0000   0.2070
   0.000  -0.0000   0.00668   0.00238  -0.0000  0.8235  0.8235  -0.4136   0.0000   0.4805
   0.500   0.0513   0.00674   0.00240   0.0020  0.7771  0.8644  -0.4770   0.0000   0.2070
   1.000   0.1027   0.00693   0.00249   0.0038  0.7263  0.8999  -0.5522   0.0000   0.2076
   1.500   0.1558   0.00723   0.00263   0.0053  0.6723  0.9286  -0.6439   0.0000   0.2108
   2.000   0.2130   0.00762   0.00282   0.0058  0.6146  0.9514  -0.7586   0.0000   0.2179
   2.500   0.2803   0.00808   0.00305   0.0038  0.5511  0.9661  -0.9079   0.0000   0.2316
   3.000   0.3553   0.00859   0.00329  -0.0002  0.4819  0.9762  -1.0959   0.0000   0.2456
   3.500   0.4314   0.00913   0.00354  -0.0047  0.4088  0.9853  -1.3157   0.0000   0.2557
   4.000   0.5082   0.00971   0.00382  -0.0095  0.3325  0.9931  -1.5674   0.0000   0.2633
   4.500   0.5857   0.01036   0.00414  -0.0146  0.2546  0.9996  -1.8512   0.0000   0.2693
   5.000   0.6317   0.01096   0.00447  -0.0132  0.1961  1.0000  -2.0898   0.0000   0.2650
   5.500   0.6742   0.01164   0.00493  -0.0110  0.1479  1.0000  -2.3364   0.0000   0.2601
   6.000   0.7154   0.01239   0.00550  -0.0086  0.1126  1.0000  -2.5908   0.0000   0.2552
   6.500   0.7560   0.01320   0.00619  -0.0059  0.0892  1.0000  -2.8646   0.0000   0.2506
   7.000   0.7960   0.01406   0.00697  -0.0031  0.0737  1.0000  -3.1436   0.0000   0.2462
   7.500   0.8354   0.01501   0.00787  -0.0002  0.0631  1.0000  -3.4435   0.0000   0.2421
   8.000   0.8747   0.01602   0.00887   0.0027  0.0552  1.0000  -3.7512   0.0000   0.2383
   8.500   0.9143   0.01707   0.00997   0.0055  0.0490  1.0000  -4.0725   0.0000   0.2349
   9.000   0.9534   0.01826   0.01119   0.0081  0.0443  1.0000  -4.4128   0.0000   0.2318
   9.500   0.9923   0.01958   0.01254   0.0106  0.0404  1.0000  -4.7593   0.0000   0.2290
  10.000   1.0304   0.02102   0.01407   0.0131  0.0372  1.0000  -5.1081   0.0000   0.2264
  10.500   1.0668   0.02262   0.01579   0.0157  0.0345  1.0000  -5.4749   0.0000   0.2238
  11.000   1.1011   0.02439   0.01763   0.0183  0.0323  1.0000  -5.8421   0.0000   0.2212
  11.500   1.1336   0.02619   0.01955   0.0211  0.0304  1.0000  -6.2076   0.0000   0.2185
  12.000   1.1593   0.02839   0.02195   0.0245  0.0288  1.0000  -6.5318   0.0000   0.2152
  12.500   1.1808   0.03045   0.02414   0.0282  0.0274  1.0000  -6.8653   0.0000   0.2118
  13.000   1.1967   0.03338   0.02729   0.0316  0.0264  1.0000  -7.1631   0.0000   0.2085
  13.500   1.2066   0.03674   0.03096   0.0344  0.0254  1.0000  -7.4226   0.0000   0.2055
  14.000   1.2170   0.04033   0.03471   0.0361  0.0246  1.0000  -7.7037   0.0000   0.2034
  14.500   1.2201   0.04515   0.03974   0.0370  0.0239  1.0000  -7.9184   0.0000   0.2019
  15.000   1.2030   0.05256   0.04764   0.0353  0.0233  1.0000  -7.9587   0.0000   0.2017
  15.500   1.1831   0.06146   0.05693   0.0315  0.0228  1.0000  -7.9629   0.0000   0.2034
  16.000   1.1572   0.07216   0.06798   0.0257  0.0225  1.0000  -7.8970   0.0000   0.2066
  16.500   1.1161   0.08655   0.08277   0.0169  0.0224  1.0000  -7.6536   0.0000   0.2125
  17.000   1.0188   0.11485   0.11168  -0.0022  0.0230  1.0000  -6.7185   0.0000   0.2289
  19.000   0.5757   0.20755   0.20495  -0.0311  0.0285  1.0000  -1.4531   0.0000   0.2881
  19.500   0.5831   0.21150   0.20892  -0.0328  0.0273  1.0000  -1.5024   0.0000   0.2898
  20.000   0.5830   0.21747   0.21491  -0.0356  0.0259  1.0000  -1.3966   0.0000   0.2945
  20.500   0.5900   0.22178   0.21923  -0.0376  0.0244  1.0000  -1.4354   0.0000   0.2966
  21.000   0.5928   0.22747   0.22494  -0.0401  0.0236  1.0000  -1.3624   0.0000   0.3003
  21.500   0.5979   0.23267   0.23016  -0.0425  0.0221  1.0000  -1.3305   0.0000   0.3033
  22.000   0.6071   0.23658   0.23408  -0.0441  0.0215  1.0000  -1.4312   0.0000   0.3041
  22.500   0.6077   0.24329   0.24081  -0.0474  0.0200  1.0000  -1.2833   0.0000   0.3093
  23.000   0.6150   0.24777   0.24531  -0.0495  0.0191  1.0000  -1.3286   0.0000   0.3112
  23.500   0.6193   0.25352   0.25108  -0.0520  0.0186  1.0000  -1.2746   0.0000   0.3142
  24.000   0.6242   0.25923   0.25681  -0.0546  0.0173  1.0000  -1.2241   0.0000   0.3173
  24.500   0.6314   0.26365   0.26126  -0.0568  0.0166  1.0000  -1.2872   0.0000   0.3190
  25.000   0.6351   0.27008   0.26770  -0.0596  0.0159  1.0000  -1.2039   0.0000   0.3224
  25.500   0.6408   0.27548   0.27312  -0.0621  0.0149  1.0000  -1.1923   0.0000   0.3249
  26.000   0.6474   0.28010   0.27777  -0.0643  0.0143  1.0000  -1.2415   0.0000   0.3265
  26.500   0.6514   0.28643   0.28411  -0.0670  0.0140  1.0000  -1.1694   0.0000   0.3295
  27.000   0.6565   0.29216   0.28986  -0.0697  0.0129  1.0000  -1.1475   0.0000   0.3320
  27.500   0.6623   0.29704   0.29477  -0.0721  0.0123  1.0000  -1.1897   0.0000   0.3339
  28.000   0.6670   0.30271   0.30046  -0.0746  0.0121  1.0000  -1.1787   0.0000   0.3360
  28.500   0.6711   0.30911   0.30688  -0.0773  0.0113  1.0000  -1.0962   0.0000   0.3388
  29.000   0.6761   0.31452   0.31232  -0.0799  0.0107  1.0000  -1.1062   0.0000   0.3409
  29.500   0.6813   0.31909   0.31691  -0.0823  0.0103  1.0000  -1.1779   0.0000   0.3423
  30.000   0.6846   0.32597   0.32382  -0.0851  0.0100  1.0000  -1.0872   0.0000   0.3452
  30.500   0.6888   0.33179   0.32966  -0.0877  0.0093  1.0000  -1.0649   0.0000   0.3473
  31.000   0.6930   0.33709   0.33498  -0.0903  0.0088  1.0000  -1.0743   0.0000   0.3493
  31.500   0.6971   0.34177   0.33969  -0.0928  0.0085  1.0000  -1.1287   0.0000   0.3507
  32.000   0.7000   0.34878   0.34672  -0.0956  0.0082  1.0000  -1.0422   0.0000   0.3534
  32.500   0.7034   0.35455   0.35252  -0.0982  0.0076  1.0000  -1.0291   0.0000   0.3554
  33.000   0.7067   0.35988   0.35787  -0.1009  0.0072  1.0000  -1.0388   0.0000   0.3573
  33.500   0.7097   0.36466   0.36268  -0.1035  0.0069  1.0000  -1.0816   0.0000   0.3589
  34.000   0.7121   0.37105   0.36909  -0.1061  0.0068  1.0000  -1.0185   0.0000   0.3611
  34.500   0.7147   0.37708   0.37515  -0.1087  0.0063  1.0000  -0.9860   0.0000   0.3631
  35.000   0.7171   0.38255   0.38064  -0.1114  0.0059  1.0000  -0.9900   0.0000   0.3650
  35.500   0.7192   0.38754   0.38566  -0.1141  0.0056  1.0000  -1.0111   0.0000   0.3667


