xflr5 v6.33

 Calculated polar for: NACA 0012 v1

 1 1 Reynolds number fixed          Mach number fixed         

 xtrf =   1.000 (top)        1.000 (bottom)
 Mach =   0.000     Re =     4.900 e 6     Ncrit =   9.000

  alpha     CL        CD       CDp       Cm    Top Xtr Bot Xtr   Cpmin    Chinge    XCp    
 ------- -------- --------- --------- -------- ------- ------- -------- --------- ---------
 -28.000  -1.1526   0.28410   0.28326   0.1390  1.0000  0.0046  -7.4895   0.0000   0.3233
 -27.500  -1.1563   0.27253   0.27163   0.1295  1.0000  0.0051  -8.1033   0.0000   0.3152
 -27.000  -1.1602   0.26158   0.26060   0.1203  1.0000  0.0054  -8.5847   0.0000   0.3075
 -26.500  -1.1574   0.25341   0.25238   0.1128  1.0000  0.0056  -8.7712   0.0000   0.3023
 -26.000  -1.1556   0.24491   0.24385   0.1052  1.0000  0.0060  -8.9566   0.0000   0.2970
 -25.500  -1.1574   0.23552   0.23441   0.0969  1.0000  0.0063  -9.2009   0.0000   0.2907
 -25.000  -1.1629   0.22515   0.22397   0.0880  1.0000  0.0065  -9.4932   0.0000   0.2836
 -24.500  -1.1728   0.21401   0.21274   0.0786  1.0000  0.0067  -9.8241   0.0000   0.2758
 -24.000  -1.1908   0.20102   0.19964   0.0679  1.0000  0.0068  -10.2653   0.0000   0.2667
 -23.500  -1.2314   0.18338   0.18183   0.0538  1.0000  0.0068  -11.0377   0.0000   0.2541
 -23.000  -1.3158   0.15766   0.15582   0.0341  1.0000  0.0068  -12.3608   0.0000   0.2371
 -22.500  -1.4328   0.12801   0.12579   0.0134  1.0000  0.0068  -13.8637   0.0000   0.2216
 -22.000  -1.5422   0.10203   0.09946  -0.0021  1.0000  0.0067  -15.0071   0.0000   0.2123
 -21.500  -1.6280   0.08148   0.07860  -0.0130  1.0000  0.0067  -15.7260   0.0000   0.2071
 -21.000  -1.6859   0.06612   0.06297  -0.0205  1.0000  0.0067  -16.0647   0.0000   0.2044
 -20.500  -1.7212   0.05467   0.05131  -0.0257  1.0000  0.0068  -16.1241   0.0000   0.2031
 -20.000  -1.7404   0.04603   0.04249  -0.0290  1.0000  0.0068  -15.9930   0.0000   0.2028
 -19.500  -1.7473   0.03943   0.03573  -0.0309  1.0000  0.0069  -15.7258   0.0000   0.2031
 -19.000  -1.7478   0.03406   0.03022  -0.0316  1.0000  0.0070  -15.3903   0.0000   0.2041
 -18.500  -1.7463   0.02949   0.02551  -0.0309  1.0000  0.0073  -15.0329   0.0000   0.2057
 -18.000  -1.7366   0.02618   0.02209  -0.0292  1.0000  0.0076  -14.5931   0.0000   0.2077
 -17.500  -1.7208   0.02373   0.01954  -0.0268  1.0000  0.0078  -14.1005   0.0000   0.2101
 -17.000  -1.7007   0.02183   0.01756  -0.0238  1.0000  0.0080  -13.5753   0.0000   0.2127
 -16.500  -1.6770   0.02034   0.01600  -0.0205  1.0000  0.0082  -13.0471   0.0000   0.2155
 -16.000  -1.6504   0.01914   0.01473  -0.0170  1.0000  0.0084  -12.5046   0.0000   0.2185
 -15.500  -1.6197   0.01811   0.01364  -0.0137  1.0000  0.0085  -11.9431   0.0000   0.2213
 -15.000  -1.5842   0.01695   0.01242  -0.0112  1.0000  0.0091  -11.3676   0.0000   0.2236
 -14.500  -1.5438   0.01600   0.01145  -0.0094  1.0000  0.0096  -10.7659   0.0000   0.2255
 -14.000  -1.5005   0.01520   0.01061  -0.0079  1.0000  0.0100  -10.1583   0.0000   0.2272
 -13.500  -1.4550   0.01449   0.00987  -0.0066  1.0000  0.0102  -9.5513   0.0000   0.2288
 -13.000  -1.4102   0.01365   0.00900  -0.0052  1.0000  0.0111  -8.9700   0.0000   0.2305
 -12.500  -1.3632   0.01297   0.00831  -0.0041  1.0000  0.0118  -8.3867   0.0000   0.2320
 -12.000  -1.3148   0.01240   0.00772  -0.0031  1.0000  0.0121  -7.8297   0.0000   0.2334
 -11.500  -1.2677   0.01173   0.00704  -0.0018  1.0000  0.0133  -7.3050   0.0000   0.2351
 -11.000  -1.2206   0.01121   0.00651  -0.0004  1.0000  0.0140  -6.7915   0.0000   0.2370
 -10.500  -1.1758   0.01068   0.00599   0.0016  1.0000  0.0152  -6.3054   0.0000   0.2393
 -10.000  -1.1282   0.01021   0.00552   0.0030  0.9998  0.0163  -5.8201   0.0000   0.2414
  -9.500  -1.0671   0.00968   0.00501   0.0015  0.9985  0.0181  -5.3057   0.0000   0.2407
  -9.000  -1.0049   0.00920   0.00455  -0.0002  0.9970  0.0201  -4.8163   0.0000   0.2398
  -8.500  -0.9421   0.00874   0.00412  -0.0020  0.9955  0.0226  -4.3430   0.0000   0.2384
  -8.000  -0.8821   0.00832   0.00373  -0.0031  0.9909  0.0255  -3.9104   0.0000   0.2376
  -7.500  -0.8259   0.00794   0.00338  -0.0032  0.9822  0.0293  -3.5178   0.0000   0.2377
  -7.000  -0.7733   0.00761   0.00306  -0.0025  0.9689  0.0336  -3.1552   0.0000   0.2388
  -6.500  -0.7206   0.00729   0.00275  -0.0018  0.9514  0.0397  -2.8219   0.0000   0.2401
  -6.000  -0.6670   0.00700   0.00246  -0.0012  0.9300  0.0473  -2.5033   0.0000   0.2411
  -5.500  -0.6127   0.00673   0.00218  -0.0008  0.9036  0.0578  -2.2084   0.0000   0.2420
  -5.000  -0.5579   0.00648   0.00193  -0.0005  0.8724  0.0719  -1.9355   0.0000   0.2428
  -4.500  -0.5029   0.00625   0.00169  -0.0003  0.8363  0.0906  -1.6842   0.0000   0.2435
  -4.000  -0.4477   0.00604   0.00148  -0.0001  0.7965  0.1146  -1.4557   0.0000   0.2441
  -3.500  -0.3923   0.00583   0.00129   0.0000  0.7537  0.1450  -1.2497   0.0000   0.2447
  -3.000  -0.3367   0.00565   0.00112   0.0001  0.7097  0.1808  -1.0681   0.0000   0.2452
  -2.500  -0.2810   0.00549   0.00099   0.0002  0.6646  0.2202  -0.9082   0.0000   0.2456
  -2.000  -0.2250   0.00535   0.00087   0.0002  0.6198  0.2630  -0.7710   0.0000   0.2460
  -1.500  -0.1689   0.00524   0.00079   0.0002  0.5751  0.3068  -0.6551   0.0000   0.2463
  -1.000  -0.1127   0.00516   0.00073   0.0001  0.5305  0.3516  -0.5589   0.0000   0.2465
  -0.500  -0.0564   0.00512   0.00069   0.0001  0.4862  0.3965  -0.4794   0.0000   0.2466
   0.500   0.0564   0.00512   0.00069  -0.0001  0.3965  0.4862  -0.4794   0.0000   0.2466
   1.000   0.1127   0.00516   0.00073  -0.0001  0.3516  0.5305  -0.5589   0.0000   0.2465
   1.500   0.1689   0.00524   0.00079  -0.0001  0.3068  0.5751  -0.6551   0.0000   0.2463
   2.000   0.2250   0.00535   0.00087  -0.0002  0.2630  0.6198  -0.7710   0.0000   0.2460
   2.500   0.2810   0.00549   0.00099  -0.0001  0.2202  0.6647  -0.9083   0.0000   0.2456
   3.000   0.3367   0.00565   0.00112  -0.0001  0.1808  0.7097  -1.0681   0.0000   0.2452
   3.500   0.3923   0.00583   0.00129   0.0000  0.1450  0.7537  -1.2497   0.0000   0.2447
   4.000   0.4477   0.00604   0.00148   0.0002  0.1146  0.7965  -1.4557   0.0000   0.2441
   4.500   0.5030   0.00625   0.00169   0.0004  0.0906  0.8363  -1.6842   0.0000   0.2435
   5.000   0.5580   0.00648   0.00193   0.0006  0.0719  0.8724  -1.9355   0.0000   0.2428
   5.500   0.6127   0.00673   0.00218   0.0010  0.0578  0.9036  -2.2085   0.0000   0.2420
   6.000   0.6670   0.00700   0.00246   0.0014  0.0472  0.9299  -2.5035   0.0000   0.2412
   6.500   0.7207   0.00729   0.00275   0.0020  0.0397  0.9514  -2.8220   0.0000   0.2401
   7.000   0.7733   0.00761   0.00306   0.0027  0.0336  0.9688  -3.1554   0.0000   0.2389
   7.500   0.8260   0.00794   0.00338   0.0035  0.0293  0.9822  -3.5180   0.0000   0.2377
   8.000   0.8822   0.00832   0.00373   0.0034  0.0255  0.9909  -3.9106   0.0000   0.2376
   8.500   0.9421   0.00874   0.00412   0.0023  0.0226  0.9955  -4.3432   0.0000   0.2384
   9.000   1.0050   0.00920   0.00455   0.0006  0.0201  0.9970  -4.8166   0.0000   0.2398
   9.500   1.0671   0.00968   0.00501  -0.0011  0.0181  0.9985  -5.3060   0.0000   0.2408
  10.000   1.1283   0.01021   0.00552  -0.0025  0.0163  0.9998  -5.8205   0.0000   0.2414
  10.500   1.1757   0.01068   0.00599  -0.0010  0.0152  1.0000  -6.3050   0.0000   0.2393
  11.000   1.2206   0.01121   0.00651   0.0010  0.0140  1.0000  -6.7914   0.0000   0.2370
  11.500   1.2677   0.01173   0.00704   0.0025  0.0133  1.0000  -7.3052   0.0000   0.2351
  12.000   1.3149   0.01240   0.00772   0.0038  0.0121  1.0000  -7.8302   0.0000   0.2334
  12.500   1.3633   0.01297   0.00831   0.0048  0.0118  1.0000  -8.3874   0.0000   0.2320
  13.000   1.4104   0.01365   0.00900   0.0060  0.0111  1.0000  -8.9708   0.0000   0.2305
  13.500   1.4552   0.01449   0.00987   0.0074  0.0102  1.0000  -9.5524   0.0000   0.2288
  14.000   1.5007   0.01520   0.01061   0.0087  0.0100  1.0000  -10.1596   0.0000   0.2273
  14.500   1.5441   0.01601   0.01145   0.0103  0.0096  1.0000  -10.7675   0.0000   0.2255
  15.000   1.5845   0.01695   0.01242   0.0122  0.0091  1.0000  -11.3696   0.0000   0.2236
  15.500   1.6201   0.01811   0.01364   0.0147  0.0085  1.0000  -11.9456   0.0000   0.2213
  16.000   1.6510   0.01914   0.01473   0.0180  0.0084  1.0000  -12.5087   0.0000   0.2185
  16.500   1.6776   0.02033   0.01599   0.0216  0.0082  1.0000  -13.0518   0.0000   0.2156
  17.000   1.7015   0.02182   0.01756   0.0249  0.0080  1.0000  -13.5811   0.0000   0.2128
  17.500   1.7217   0.02372   0.01953   0.0279  0.0078  1.0000  -14.1072   0.0000   0.2102
  18.000   1.7376   0.02617   0.02208   0.0304  0.0076  1.0000  -14.6010   0.0000   0.2078
  18.500   1.7475   0.02947   0.02548   0.0321  0.0073  1.0000  -15.0419   0.0000   0.2058
  19.000   1.7491   0.03404   0.03019   0.0328  0.0070  1.0000  -15.4003   0.0000   0.2042
  19.500   1.7489   0.03936   0.03566   0.0321  0.0069  1.0000  -15.7398   0.0000   0.2033
  20.000   1.7423   0.04594   0.04240   0.0303  0.0068  1.0000  -16.0098   0.0000   0.2029
  20.500   1.7235   0.05455   0.05119   0.0269  0.0068  1.0000  -16.1439   0.0000   0.2033
  21.000   1.6884   0.06597   0.06282   0.0218  0.0067  1.0000  -16.0876   0.0000   0.2046
  21.500   1.6307   0.08129   0.07840   0.0142  0.0067  1.0000  -15.7521   0.0000   0.2072
  22.000   1.5450   0.10186   0.09928   0.0032  0.0067  1.0000  -15.0335   0.0000   0.2124
  22.500   1.4353   0.12789   0.12567  -0.0124  0.0068  1.0000  -13.8884   0.0000   0.2217
  23.000   1.3180   0.15765   0.15581  -0.0332  0.0068  1.0000  -12.3829   0.0000   0.2371
  23.500   1.2329   0.18356   0.18200  -0.0532  0.0068  1.0000  -11.0488   0.0000   0.2542
  24.000   1.1921   0.20134   0.19996  -0.0675  0.0068  1.0000  -10.2735   0.0000   0.2669
  24.500   1.1741   0.21432   0.21305  -0.0783  0.0067  1.0000  -9.8321   0.0000   0.2760
  25.000   1.1643   0.22558   0.22440  -0.0877  0.0065  1.0000  -9.5007   0.0000   0.2837
  25.500   1.1588   0.23601   0.23490  -0.0967  0.0063  1.0000  -9.2079   0.0000   0.2908
  26.000   1.1570   0.24554   0.24447  -0.1050  0.0060  1.0000  -8.9628   0.0000   0.2971
  26.500   1.1590   0.25406   0.25302  -0.1127  0.0056  1.0000  -8.7797   0.0000   0.3025
  27.000   1.1617   0.26235   0.26137  -0.1202  0.0054  1.0000  -8.5915   0.0000   0.3076
  27.500   1.1579   0.27343   0.27254  -0.1295  0.0051  1.0000  -8.1098   0.0000   0.3153
  28.000   1.1544   0.28525   0.28441  -0.1390  0.0046  1.0000  -7.4994   0.0000   0.3234


