xflr5 v6.33

 Calculated polar for: NACA 0012-64

 1 1 Reynolds number fixed          Mach number fixed         

 xtrf =   1.000 (top)        1.000 (bottom)
 Mach =   0.000     Re =     2.800 e 6     Ncrit =   9.000

  alpha     CL        CD       CDp       Cm    Top Xtr Bot Xtr   Cpmin    Chinge    XCp    
 ------- -------- --------- --------- -------- ------- ------- -------- --------- ---------
 -25.000  -0.9910   0.25499   0.25385   0.0796  1.0000  0.0053  -7.0479   0.0000   0.2905
 -24.500  -0.9800   0.24851   0.24738   0.0742  1.0000  0.0057  -6.9817   0.0000   0.2871
 -24.000  -0.9815   0.23728   0.23610   0.0663  1.0000  0.0063  -7.3568   0.0000   0.2796
 -23.500  -0.9857   0.22571   0.22446   0.0581  1.0000  0.0067  -7.7275   0.0000   0.2718
 -23.000  -0.9903   0.21449   0.21321   0.0501  1.0000  0.0073  -8.0196   0.0000   0.2643
 -22.500  -1.0143   0.19809   0.19672   0.0390  1.0000  0.0078  -8.7242   0.0000   0.2527
 -22.000  -1.0592   0.17778   0.17624   0.0254  1.0000  0.0081  -9.6914   0.0000   0.2389
 -21.500  -1.4174   0.09855   0.09604  -0.0223  1.0000  0.0069  -15.1648   0.0000   0.1997
 -21.000  -1.5117   0.07526   0.07236  -0.0350  1.0000  0.0067  -16.0944   0.0000   0.1938
 -20.500  -1.5617   0.06085   0.05766  -0.0421  1.0000  0.0068  -16.3639   0.0000   0.1916
 -20.000  -1.5905   0.05085   0.04742  -0.0458  1.0000  0.0070  -16.3308   0.0000   0.1913
 -19.500  -1.6053   0.04360   0.03998  -0.0472  1.0000  0.0072  -16.1119   0.0000   0.1921
 -19.000  -1.6105   0.03814   0.03435  -0.0469  1.0000  0.0075  -15.7733   0.0000   0.1937
 -18.500  -1.6076   0.03392   0.02998  -0.0457  1.0000  0.0078  -15.3507   0.0000   0.1956
 -18.000  -1.5977   0.03063   0.02655  -0.0439  1.0000  0.0080  -14.8693   0.0000   0.1977
 -17.500  -1.5870   0.02763   0.02342  -0.0414  1.0000  0.0085  -14.3871   0.0000   0.2002
 -17.000  -1.5733   0.02505   0.02072  -0.0384  1.0000  0.0091  -13.8794   0.0000   0.2030
 -16.500  -1.5534   0.02306   0.01863  -0.0354  1.0000  0.0096  -13.3204   0.0000   0.2057
 -16.000  -1.5284   0.02149   0.01696  -0.0325  1.0000  0.0100  -12.7267   0.0000   0.2082
 -15.500  -1.5051   0.01984   0.01523  -0.0289  1.0000  0.0111  -12.1826   0.0000   0.2112
 -15.000  -1.4764   0.01859   0.01392  -0.0257  1.0000  0.0120  -11.6010   0.0000   0.2139
 -14.500  -1.4465   0.01746   0.01273  -0.0224  1.0000  0.0132  -11.0224   0.0000   0.2168
 -14.000  -1.4145   0.01658   0.01181  -0.0190  1.0000  0.0144  -10.4364   0.0000   0.2197
 -13.500  -1.3853   0.01582   0.01099  -0.0147  1.0000  0.0154  -9.8825   0.0000   0.2234
 -13.000  -1.3556   0.01517   0.01033  -0.0103  1.0000  0.0166  -9.3342   0.0000   0.2272
 -12.500  -1.3291   0.01469   0.00981  -0.0050  1.0000  0.0174  -8.8170   0.0000   0.2318
 -11.500  -1.2258   0.01342   0.00851  -0.0051  0.9977  0.0198  -7.5319   0.0000   0.2329
 -11.000  -1.1664   0.01294   0.00803  -0.0067  0.9964  0.0207  -6.8754   0.0000   0.2321
 -10.500  -1.1079   0.01226   0.00732  -0.0082  0.9953  0.0218  -6.2553   0.0000   0.2312
 -10.000  -1.0506   0.01168   0.00674  -0.0092  0.9931  0.0229  -5.6737   0.0000   0.2304
  -9.500  -0.9908   0.01118   0.00624  -0.0107  0.9911  0.0238  -5.1467   0.0000   0.2290
  -9.000  -0.9308   0.01076   0.00582  -0.0122  0.9885  0.0246  -4.6539   0.0000   0.2273
  -8.500  -0.8775   0.01018   0.00520  -0.0122  0.9830  0.0256  -4.2149   0.0000   0.2271
  -8.000  -0.8266   0.00969   0.00470  -0.0115  0.9764  0.0270  -3.8165   0.0000   0.2276
  -7.500  -0.7766   0.00931   0.00431  -0.0105  0.9685  0.0281  -3.4544   0.0000   0.2285
  -7.000  -0.7262   0.00897   0.00393  -0.0095  0.9595  0.0289  -3.1389   0.0000   0.2293
  -6.500  -0.6750   0.00858   0.00351  -0.0087  0.9504  0.0299  -2.8660   0.0000   0.2299
  -6.000  -0.6231   0.00820   0.00312  -0.0081  0.9409  0.0319  -2.6055   0.0000   0.2304
  -5.500  -0.5702   0.00790   0.00280  -0.0076  0.9309  0.0335  -2.3465   0.0000   0.2304
  -5.000  -0.5170   0.00759   0.00249  -0.0072  0.9203  0.0370  -2.0975   0.0000   0.2302
  -4.500  -0.4640   0.00726   0.00220  -0.0067  0.9082  0.0477  -1.8573   0.0000   0.2299
  -4.000  -0.4112   0.00689   0.00193  -0.0062  0.8957  0.0727  -1.6284   0.0000   0.2295
  -3.500  -0.3575   0.00659   0.00171  -0.0059  0.8827  0.0953  -1.4169   0.0000   0.2283
  -3.000  -0.3044   0.00623   0.00149  -0.0055  0.8688  0.1376  -1.2144   0.0000   0.2270
  -2.500  -0.2515   0.00586   0.00130  -0.0050  0.8539  0.1930  -1.0306   0.0000   0.2251
  -2.000  -0.1995   0.00546   0.00112  -0.0044  0.8362  0.2690  -0.8583   0.0000   0.2232
  -1.500  -0.1529   0.00471   0.00088  -0.0028  0.8103  0.4398  -0.7017   0.0000   0.2270
  -1.000  -0.1031   0.00430   0.00075  -0.0017  0.7781  0.5497  -0.5460   0.0000   0.2288
  -0.500  -0.0516   0.00408   0.00068  -0.0009  0.7425  0.6293  -0.4250   0.0000   0.2286
   0.000  -0.0000   0.00393   0.00065   0.0000  0.7028  0.7028  -0.3385   0.0000   0.4717
   0.500   0.0516   0.00408   0.00068   0.0009  0.6293  0.7425  -0.4250   0.0000   0.2286
   1.000   0.1031   0.00430   0.00075   0.0017  0.5497  0.7782  -0.5460   0.0000   0.2288
   1.500   0.1530   0.00471   0.00088   0.0028  0.4398  0.8103  -0.7017   0.0000   0.2270
   2.000   0.1996   0.00546   0.00112   0.0044  0.2690  0.8362  -0.8583   0.0000   0.2232
   2.500   0.2515   0.00586   0.00130   0.0050  0.1930  0.8539  -1.0306   0.0000   0.2251
   3.000   0.3045   0.00623   0.00149   0.0055  0.1376  0.8688  -1.2145   0.0000   0.2270
   3.500   0.3575   0.00659   0.00171   0.0059  0.0953  0.8827  -1.4169   0.0000   0.2283
   4.000   0.4112   0.00689   0.00193   0.0062  0.0727  0.8957  -1.6285   0.0000   0.2295
   4.500   0.4641   0.00726   0.00220   0.0067  0.0477  0.9082  -1.8574   0.0000   0.2299
   5.000   0.5171   0.00759   0.00249   0.0071  0.0370  0.9203  -2.0977   0.0000   0.2302
   5.500   0.5703   0.00790   0.00280   0.0076  0.0335  0.9309  -2.3467   0.0000   0.2304
   6.000   0.6232   0.00820   0.00312   0.0080  0.0319  0.9409  -2.6057   0.0000   0.2304
   6.500   0.6750   0.00858   0.00351   0.0087  0.0299  0.9504  -2.8662   0.0000   0.2300
   7.000   0.7263   0.00897   0.00393   0.0095  0.0289  0.9595  -3.1392   0.0000   0.2294
   7.500   0.7768   0.00931   0.00431   0.0104  0.0281  0.9684  -3.4548   0.0000   0.2285
   8.000   0.8267   0.00969   0.00470   0.0115  0.0270  0.9764  -3.8169   0.0000   0.2276
   8.500   0.8777   0.01018   0.00520   0.0121  0.0256  0.9830  -4.2154   0.0000   0.2271
   9.000   0.9309   0.01076   0.00582   0.0122  0.0246  0.9885  -4.6545   0.0000   0.2273
   9.500   0.9910   0.01118   0.00624   0.0107  0.0238  0.9911  -5.1473   0.0000   0.2290
  10.000   1.0507   0.01168   0.00674   0.0092  0.0229  0.9931  -5.6743   0.0000   0.2305
  10.500   1.1081   0.01226   0.00732   0.0081  0.0218  0.9953  -6.2563   0.0000   0.2312
  11.000   1.1666   0.01294   0.00802   0.0067  0.0207  0.9964  -6.8766   0.0000   0.2321
  11.500   1.2260   0.01341   0.00851   0.0051  0.0198  0.9977  -7.5332   0.0000   0.2330
  12.000   1.2835   0.01400   0.00909   0.0038  0.0185  0.9992  -8.2022   0.0000   0.2334
  12.500   1.3289   0.01469   0.00981   0.0050  0.0174  1.0000  -8.8161   0.0000   0.2318
  13.000   1.3556   0.01517   0.01033   0.0103  0.0166  1.0000  -9.3344   0.0000   0.2272
  13.500   1.3856   0.01582   0.01099   0.0147  0.0154  1.0000  -9.8846   0.0000   0.2234
  14.000   1.4151   0.01658   0.01181   0.0189  0.0144  1.0000  -10.4404   0.0000   0.2198
  14.500   1.4472   0.01746   0.01273   0.0223  0.0132  1.0000  -11.0270   0.0000   0.2169
  15.000   1.4772   0.01859   0.01392   0.0256  0.0120  1.0000  -11.6066   0.0000   0.2140
  15.500   1.5060   0.01984   0.01523   0.0288  0.0111  1.0000  -12.1891   0.0000   0.2113
  16.000   1.5294   0.02149   0.01695   0.0323  0.0100  1.0000  -12.7337   0.0000   0.2084
  16.500   1.5546   0.02305   0.01862   0.0352  0.0096  1.0000  -13.3296   0.0000   0.2058
  17.000   1.5746   0.02504   0.02071   0.0382  0.0091  1.0000  -13.8898   0.0000   0.2032
  17.500   1.5884   0.02762   0.02341   0.0412  0.0085  1.0000  -14.3983   0.0000   0.2004
  18.000   1.5994   0.03060   0.02652   0.0437  0.0080  1.0000  -14.8838   0.0000   0.1979
  18.500   1.6095   0.03388   0.02994   0.0455  0.0078  1.0000  -15.3670   0.0000   0.1958
  19.000   1.6126   0.03809   0.03430   0.0466  0.0075  1.0000  -15.7919   0.0000   0.1939
  19.500   1.6076   0.04353   0.03991   0.0468  0.0072  1.0000  -16.1325   0.0000   0.1923
  20.000   1.5929   0.05077   0.04735   0.0455  0.0070  1.0000  -16.3529   0.0000   0.1915
  20.500   1.5642   0.06078   0.05759   0.0418  0.0068  1.0000  -16.3869   0.0000   0.1919
  21.000   1.5142   0.07520   0.07230   0.0346  0.0067  1.0000  -16.1175   0.0000   0.1941
  21.500   1.4200   0.09850   0.09600   0.0219  0.0069  1.0000  -15.1876   0.0000   0.2000
  22.000   1.0607   0.17809   0.17655  -0.0259  0.0081  1.0000  -9.6968   0.0000   0.2393
  22.500   1.0157   0.19858   0.19721  -0.0395  0.0078  1.0000  -8.7268   0.0000   0.2531
  23.000   0.9918   0.21506   0.21378  -0.0506  0.0073  1.0000  -8.0229   0.0000   0.2647
  23.500   0.9876   0.22630   0.22505  -0.0585  0.0067  1.0000  -7.7382   0.0000   0.2721
  24.000   0.9831   0.23809   0.23691  -0.0668  0.0062  1.0000  -7.3593   0.0000   0.2800
  24.500   0.9819   0.24939   0.24825  -0.0747  0.0057  1.0000  -6.9898   0.0000   0.2875
  25.000   0.9930   0.25593   0.25480  -0.0801  0.0053  1.0000  -7.0595   0.0000   0.2908


