xflr5 v6.33

 Calculated polar for: NACA 0012 v1

 1 1 Reynolds number fixed          Mach number fixed         

 xtrf =   1.000 (top)        1.000 (bottom)
 Mach =   0.000     Re =     0.600 e 6     Ncrit =   9.000

  alpha     CL        CD       CDp       Cm    Top Xtr Bot Xtr   Cpmin    Chinge    XCp    
 ------- -------- --------- --------- -------- ------- ------- -------- --------- ---------
 -22.000  -0.9196   0.25545   0.25313   0.0925  1.0000  0.0147  -2.2045   0.0000   0.3236
 -21.500  -0.9031   0.25014   0.24781   0.0880  1.0000  0.0156  -2.1497   0.0000   0.3215
 -21.000  -0.8895   0.24196   0.23964   0.0821  1.0000  0.0167  -2.3117   0.0000   0.3170
 -20.500  -0.8718   0.23752   0.23519   0.0786  1.0000  0.0172  -2.1832   0.0000   0.3158
 -19.000  -1.0614   0.14145   0.13876   0.0215  1.0000  0.0174  -7.6229   0.0000   0.2422
 -18.500  -1.1269   0.11836   0.11526   0.0063  1.0000  0.0173  -8.4133   0.0000   0.2282
 -18.000  -1.1629   0.10308   0.09970  -0.0030  1.0000  0.0174  -8.7112   0.0000   0.2211
 -17.500  -1.1942   0.08950   0.08587  -0.0108  1.0000  0.0176  -8.8995   0.0000   0.2157
 -17.000  -1.2216   0.07728   0.07337  -0.0174  1.0000  0.0178  -9.0109   0.0000   0.2116
 -16.500  -1.2445   0.06646   0.06227  -0.0231  1.0000  0.0180  -9.0521   0.0000   0.2085
 -16.000  -1.2614   0.05707   0.05259  -0.0276  1.0000  0.0184  -9.0225   0.0000   0.2063
 -15.500  -1.2718   0.04908   0.04426  -0.0310  1.0000  0.0187  -8.9251   0.0000   0.2050
 -15.000  -1.2770   0.04253   0.03750  -0.0325  1.0000  0.0191  -8.7657   0.0000   0.2050
 -14.500  -1.2725   0.03763   0.03247  -0.0328  1.0000  0.0197  -8.5080   0.0000   0.2057
 -14.000  -1.2630   0.03371   0.02836  -0.0321  1.0000  0.0204  -8.2141   0.0000   0.2070
 -13.500  -1.2500   0.03053   0.02490  -0.0302  1.0000  0.0212  -7.9049   0.0000   0.2092
 -13.000  -1.2381   0.02757   0.02183  -0.0270  1.0000  0.0220  -7.5947   0.0000   0.2124
 -12.500  -1.2183   0.02553   0.01967  -0.0235  1.0000  0.0229  -7.2310   0.0000   0.2158
 -12.000  -1.1937   0.02388   0.01778  -0.0196  1.0000  0.0241  -6.8786   0.0000   0.2194
 -11.500  -1.1659   0.02203   0.01591  -0.0164  1.0000  0.0254  -6.5027   0.0000   0.2226
 -11.000  -1.1303   0.02060   0.01431  -0.0138  1.0000  0.0272  -6.1053   0.0000   0.2251
 -10.500  -1.0934   0.01922   0.01288  -0.0114  1.0000  0.0290  -5.7022   0.0000   0.2276
 -10.000  -1.0546   0.01793   0.01152  -0.0091  1.0000  0.0313  -5.3032   0.0000   0.2301
  -9.500  -1.0141   0.01681   0.01033  -0.0068  1.0000  0.0341  -4.9236   0.0000   0.2326
  -9.000  -0.9733   0.01578   0.00925  -0.0044  1.0000  0.0373  -4.5554   0.0000   0.2354
  -8.500  -0.9325   0.01486   0.00830  -0.0019  1.0000  0.0414  -4.1939   0.0000   0.2384
  -8.000  -0.8913   0.01404   0.00745   0.0007  1.0000  0.0466  -3.8513   0.0000   0.2418
  -7.500  -0.8506   0.01323   0.00666   0.0034  1.0000  0.0532  -3.5286   0.0000   0.2455
  -7.000  -0.8096   0.01252   0.00596   0.0061  1.0000  0.0622  -3.2138   0.0000   0.2496
  -6.500  -0.7685   0.01184   0.00534   0.0087  1.0000  0.0748  -2.9222   0.0000   0.2539
  -6.000  -0.7267   0.01122   0.00481   0.0112  1.0000  0.0933  -2.6387   0.0000   0.2585
  -5.500  -0.6762   0.01058   0.00432   0.0118  0.9988  0.1228  -2.3533   0.0000   0.2609
  -5.000  -0.6036   0.00985   0.00384   0.0077  0.9942  0.1723  -2.0307   0.0000   0.2565
  -4.500  -0.5306   0.00914   0.00342   0.0036  0.9891  0.2346  -1.7363   0.0000   0.2508
  -4.000  -0.4588   0.00848   0.00305  -0.0002  0.9824  0.3021  -1.4735   0.0000   0.2438
  -3.500  -0.3857   0.00787   0.00273  -0.0041  0.9756  0.3711  -1.2375   0.0000   0.2338
  -3.000  -0.3197   0.00735   0.00245  -0.0062  0.9641  0.4359  -1.0422   0.0000   0.2251
  -2.500  -0.2619   0.00691   0.00222  -0.0063  0.9457  0.4962  -0.8841   0.0000   0.2205
  -2.000  -0.2085   0.00654   0.00202  -0.0054  0.9212  0.5536  -0.7535   0.0000   0.2192
  -1.500  -0.1565   0.00625   0.00186  -0.0040  0.8910  0.6094  -0.6444   0.0000   0.2193
  -1.000  -0.1044   0.00605   0.00174  -0.0027  0.8548  0.6641  -0.5535   0.0000   0.2196
  -0.500  -0.0522   0.00592   0.00167  -0.0013  0.8132  0.7165  -0.4777   0.0000   0.2199
   0.000  -0.0000   0.00588   0.00165  -0.0000  0.7667  0.7667  -0.4137   0.0000   0.4367
   0.500   0.0522   0.00592   0.00167   0.0013  0.7165  0.8132  -0.4777   0.0000   0.2199
   1.000   0.1044   0.00605   0.00174   0.0027  0.6641  0.8548  -0.5535   0.0000   0.2196
   1.500   0.1565   0.00625   0.00186   0.0040  0.6094  0.8910  -0.6444   0.0000   0.2194
   2.000   0.2085   0.00654   0.00202   0.0054  0.5536  0.9212  -0.7535   0.0000   0.2192
   2.500   0.2619   0.00691   0.00221   0.0064  0.4962  0.9457  -0.8841   0.0000   0.2205
   3.000   0.3197   0.00735   0.00245   0.0063  0.4359  0.9641  -1.0422   0.0000   0.2251
   3.500   0.3857   0.00787   0.00273   0.0042  0.3711  0.9756  -1.2375   0.0000   0.2338
   4.000   0.4588   0.00848   0.00305   0.0003  0.3021  0.9824  -1.4735   0.0000   0.2438
   4.500   0.5307   0.00914   0.00342  -0.0035  0.2345  0.9891  -1.7363   0.0000   0.2508
   5.000   0.6036   0.00985   0.00384  -0.0076  0.1723  0.9942  -2.0307   0.0000   0.2565
   5.500   0.6763   0.01057   0.00432  -0.0116  0.1228  0.9989  -2.3533   0.0000   0.2609
   6.000   0.7266   0.01122   0.00480  -0.0110  0.0933  1.0000  -2.6385   0.0000   0.2584
   6.500   0.7684   0.01184   0.00534  -0.0085  0.0748  1.0000  -2.9220   0.0000   0.2539
   7.000   0.8096   0.01252   0.00596  -0.0058  0.0622  1.0000  -3.2135   0.0000   0.2496
   7.500   0.8506   0.01323   0.00666  -0.0031  0.0532  1.0000  -3.5284   0.0000   0.2455
   8.000   0.8912   0.01404   0.00745  -0.0003  0.0466  1.0000  -3.8512   0.0000   0.2418
   8.500   0.9324   0.01486   0.00830   0.0023  0.0414  1.0000  -4.1938   0.0000   0.2384
   9.000   0.9733   0.01578   0.00924   0.0048  0.0373  1.0000  -4.5554   0.0000   0.2354
   9.500   1.0141   0.01681   0.01032   0.0072  0.0341  1.0000  -4.9238   0.0000   0.2326
  10.000   1.0547   0.01793   0.01152   0.0095  0.0313  1.0000  -5.3036   0.0000   0.2301
  10.500   1.0935   0.01922   0.01288   0.0119  0.0290  1.0000  -5.7027   0.0000   0.2276
  11.000   1.1305   0.02060   0.01432   0.0143  0.0272  1.0000  -6.1059   0.0000   0.2251
  11.500   1.1661   0.02203   0.01591   0.0169  0.0254  1.0000  -6.5037   0.0000   0.2226
  12.000   1.1940   0.02388   0.01778   0.0202  0.0241  1.0000  -6.8801   0.0000   0.2195
  12.500   1.2187   0.02553   0.01967   0.0240  0.0229  1.0000  -7.2330   0.0000   0.2159
  13.000   1.2386   0.02757   0.02182   0.0276  0.0220  1.0000  -7.5973   0.0000   0.2125
  13.500   1.2506   0.03052   0.02490   0.0308  0.0212  1.0000  -7.9080   0.0000   0.2093
  14.000   1.2637   0.03371   0.02836   0.0327  0.0204  1.0000  -8.2179   0.0000   0.2071
  14.500   1.2733   0.03762   0.03246   0.0335  0.0197  1.0000  -8.5127   0.0000   0.2058
  15.000   1.2779   0.04252   0.03748   0.0331  0.0191  1.0000  -8.7708   0.0000   0.2051
  15.500   1.2727   0.04907   0.04426   0.0316  0.0187  1.0000  -8.9303   0.0000   0.2051
  16.000   1.2625   0.05706   0.05258   0.0282  0.0183  1.0000  -9.0282   0.0000   0.2065
  16.500   1.2456   0.06645   0.06226   0.0237  0.0180  1.0000  -9.0585   0.0000   0.2087
  17.000   1.2228   0.07726   0.07335   0.0180  0.0178  1.0000  -9.0175   0.0000   0.2118
  17.500   1.1954   0.08949   0.08585   0.0113  0.0176  1.0000  -8.9064   0.0000   0.2159
  18.000   1.1642   0.10307   0.09970   0.0035  0.0174  1.0000  -8.7181   0.0000   0.2213
  18.500   1.1281   0.11838   0.11528  -0.0059  0.0173  1.0000  -8.4204   0.0000   0.2284
  19.000   1.0623   0.14160   0.13891  -0.0212  0.0174  1.0000  -7.6244   0.0000   0.2425
  34.500   0.7161   0.37546   0.37388  -0.1094  0.0042  1.0000  -1.0785   0.0000   0.3633
  35.000   0.7182   0.38108   0.37952  -0.1120  0.0042  1.0000  -1.0786   0.0000   0.3651
  35.500   0.7202   0.38771   0.38617  -0.1146  0.0040  1.0000  -1.0009   0.0000   0.3672
  36.000   0.7220   0.39333   0.39182  -0.1172  0.0036  1.0000  -0.9832   0.0000   0.3690
  36.500   0.7237   0.39843   0.39694  -0.1199  0.0033  1.0000  -0.9894   0.0000   0.3708
  37.000   0.7250   0.40293   0.40146  -0.1226  0.0031  1.0000  -1.0213   0.0000   0.3726


