xflr5 v6.33

 Calculated polar for: NACA 0012 v1

 1 1 Reynolds number fixed          Mach number fixed         

 xtrf =   1.000 (top)        1.000 (bottom)
 Mach =   0.000     Re =     5.000 e 6     Ncrit =   9.000

  alpha     CL        CD       CDp       Cm    Top Xtr Bot Xtr   Cpmin    Chinge    XCp    
 ------- -------- --------- --------- -------- ------- ------- -------- --------- ---------
 -28.000  -1.1548   0.28316   0.28232   0.1384  1.0000  0.0046  -7.6057   0.0000   0.3224
 -27.500  -1.1577   0.27200   0.27110   0.1292  1.0000  0.0051  -8.1656   0.0000   0.3146
 -27.000  -1.1608   0.26139   0.26041   0.1202  1.0000  0.0054  -8.6077   0.0000   0.3073
 -26.500  -1.1583   0.25316   0.25213   0.1126  1.0000  0.0055  -8.7994   0.0000   0.3021
 -26.000  -1.1561   0.24478   0.24371   0.1051  1.0000  0.0059  -8.9738   0.0000   0.2968
 -25.500  -1.1584   0.23523   0.23412   0.0967  1.0000  0.0062  -9.2320   0.0000   0.2904
 -25.000  -1.1645   0.22473   0.22355   0.0877  1.0000  0.0065  -9.5346   0.0000   0.2831
 -24.500  -1.1753   0.21335   0.21207   0.0781  1.0000  0.0066  -9.8833   0.0000   0.2752
 -24.000  -1.1969   0.19958   0.19819   0.0667  1.0000  0.0068  -10.3920   0.0000   0.2654
 -23.500  -1.2421   0.18097   0.17939   0.0519  1.0000  0.0068  -11.2324   0.0000   0.2521
 -23.000  -1.3351   0.15382   0.15193   0.0312  1.0000  0.0068  -12.6572   0.0000   0.2345
 -22.500  -1.4515   0.12465   0.12239   0.0112  1.0000  0.0068  -14.1128   0.0000   0.2200
 -22.000  -1.5570   0.09962   0.09701  -0.0035  1.0000  0.0067  -15.1855   0.0000   0.2114
 -21.500  -1.6395   0.07971   0.07680  -0.0139  1.0000  0.0067  -15.8580   0.0000   0.2066
 -21.000  -1.6947   0.06484   0.06168  -0.0211  1.0000  0.0067  -16.1624   0.0000   0.2041
 -20.500  -1.7284   0.05371   0.05034  -0.0261  1.0000  0.0067  -16.2005   0.0000   0.2030
 -20.000  -1.7464   0.04529   0.04173  -0.0293  1.0000  0.0068  -16.0555   0.0000   0.2027
 -19.500  -1.7524   0.03884   0.03514  -0.0310  1.0000  0.0068  -15.7774   0.0000   0.2031
 -19.000  -1.7496   0.03388   0.03004  -0.0316  1.0000  0.0069  -15.4070   0.0000   0.2041
 -18.500  -1.7484   0.02931   0.02532  -0.0309  1.0000  0.0072  -15.0521   0.0000   0.2057
 -18.000  -1.7389   0.02600   0.02191  -0.0291  1.0000  0.0075  -14.6150   0.0000   0.2078
 -17.500  -1.7232   0.02356   0.01938  -0.0266  1.0000  0.0078  -14.1222   0.0000   0.2102
 -17.000  -1.7031   0.02168   0.01742  -0.0236  1.0000  0.0080  -13.5960   0.0000   0.2129
 -16.500  -1.6793   0.02020   0.01587  -0.0203  1.0000  0.0082  -13.0665   0.0000   0.2157
 -16.000  -1.6527   0.01902   0.01462  -0.0167  1.0000  0.0084  -12.5231   0.0000   0.2186
 -15.500  -1.6208   0.01804   0.01358  -0.0135  1.0000  0.0085  -11.9510   0.0000   0.2213
 -15.000  -1.5852   0.01687   0.01236  -0.0111  1.0000  0.0091  -11.3758   0.0000   0.2236
 -14.500  -1.5448   0.01593   0.01138  -0.0092  1.0000  0.0095  -10.7740   0.0000   0.2256
 -14.000  -1.5014   0.01512   0.01054  -0.0077  1.0000  0.0099  -10.1659   0.0000   0.2273
 -13.500  -1.4559   0.01441   0.00980  -0.0065  1.0000  0.0102  -9.5584   0.0000   0.2289
 -13.000  -1.4108   0.01359   0.00896  -0.0051  1.0000  0.0111  -8.9749   0.0000   0.2305
 -12.500  -1.3638   0.01291   0.00826  -0.0040  1.0000  0.0117  -8.3915   0.0000   0.2321
 -12.000  -1.3154   0.01234   0.00767  -0.0030  1.0000  0.0121  -7.8344   0.0000   0.2335
 -11.500  -1.2682   0.01168   0.00701  -0.0018  1.0000  0.0132  -7.3085   0.0000   0.2352
 -11.000  -1.2212   0.01115   0.00648  -0.0003  1.0000  0.0140  -6.7954   0.0000   0.2370
 -10.500  -1.1763   0.01064   0.00596   0.0017  1.0000  0.0151  -6.3087   0.0000   0.2394
 -10.000  -1.1276   0.01016   0.00549   0.0029  0.9997  0.0163  -5.8183   0.0000   0.2412
  -9.500  -1.0665   0.00964   0.00498   0.0014  0.9984  0.0180  -5.3039   0.0000   0.2406
  -9.000  -1.0043   0.00916   0.00453  -0.0003  0.9969  0.0200  -4.8144   0.0000   0.2396
  -8.500  -0.9417   0.00871   0.00410  -0.0021  0.9952  0.0224  -4.3420   0.0000   0.2383
  -8.000  -0.8820   0.00829   0.00371  -0.0031  0.9903  0.0254  -3.9105   0.0000   0.2376
  -7.500  -0.8263   0.00791   0.00336  -0.0031  0.9812  0.0292  -3.5195   0.0000   0.2378
  -7.000  -0.7738   0.00758   0.00305  -0.0024  0.9675  0.0333  -3.1569   0.0000   0.2390
  -6.500  -0.7211   0.00726   0.00274  -0.0017  0.9498  0.0395  -2.8234   0.0000   0.2402
  -6.000  -0.6673   0.00698   0.00245  -0.0011  0.9279  0.0470  -2.5044   0.0000   0.2413
  -5.500  -0.6130   0.00671   0.00217  -0.0007  0.9012  0.0574  -2.2095   0.0000   0.2422
  -5.000  -0.5582   0.00647   0.00192  -0.0005  0.8695  0.0713  -1.9362   0.0000   0.2429
  -4.500  -0.5032   0.00624   0.00169  -0.0002  0.8332  0.0897  -1.6847   0.0000   0.2436
  -4.000  -0.4478   0.00603   0.00148  -0.0001  0.7930  0.1135  -1.4560   0.0000   0.2442
  -3.500  -0.3924   0.00583   0.00128   0.0001  0.7503  0.1436  -1.2499   0.0000   0.2448
  -3.000  -0.3368   0.00565   0.00112   0.0001  0.7059  0.1789  -1.0682   0.0000   0.2453
  -2.500  -0.2810   0.00549   0.00098   0.0002  0.6613  0.2184  -0.9084   0.0000   0.2457
  -2.000  -0.2251   0.00535   0.00087   0.0002  0.6163  0.2605  -0.7711   0.0000   0.2460
  -1.500  -0.1690   0.00524   0.00079   0.0002  0.5718  0.3046  -0.6552   0.0000   0.2463
  -0.500  -0.0564   0.00512   0.00069   0.0001  0.4830  0.3939  -0.4794   0.0000   0.2466
   0.000  -0.0000   0.00510   0.00068  -0.0000  0.4387  0.4387  -0.4128   0.0000   0.4600
   0.500   0.0564   0.00512   0.00069  -0.0001  0.3939  0.4830  -0.4794   0.0000   0.2466
   1.500   0.1690   0.00524   0.00079  -0.0002  0.3046  0.5718  -0.6552   0.0000   0.2463
   2.000   0.2251   0.00535   0.00087  -0.0002  0.2605  0.6163  -0.7711   0.0000   0.2460
   2.500   0.2811   0.00549   0.00098  -0.0001  0.2184  0.6613  -0.9084   0.0000   0.2457
   3.000   0.3368   0.00565   0.00112  -0.0001  0.1789  0.7059  -1.0683   0.0000   0.2453
   3.500   0.3924   0.00583   0.00128   0.0000  0.1436  0.7503  -1.2500   0.0000   0.2448
   4.000   0.4479   0.00603   0.00148   0.0001  0.1135  0.7930  -1.4560   0.0000   0.2442
   4.500   0.5032   0.00624   0.00169   0.0003  0.0897  0.8332  -1.6848   0.0000   0.2436
   5.000   0.5583   0.00647   0.00192   0.0006  0.0713  0.8695  -1.9363   0.0000   0.2429
   5.500   0.6131   0.00671   0.00217   0.0009  0.0574  0.9012  -2.2095   0.0000   0.2422
   6.000   0.6674   0.00698   0.00245   0.0013  0.0470  0.9279  -2.5046   0.0000   0.2413
   6.500   0.7211   0.00726   0.00274   0.0019  0.0395  0.9498  -2.8235   0.0000   0.2403
   7.000   0.7738   0.00758   0.00305   0.0026  0.0333  0.9674  -3.1571   0.0000   0.2390
   7.500   0.8264   0.00791   0.00336   0.0034  0.0292  0.9812  -3.5197   0.0000   0.2378
   8.000   0.8821   0.00829   0.00371   0.0034  0.0254  0.9903  -3.9107   0.0000   0.2376
   8.500   0.9418   0.00871   0.00410   0.0024  0.0224  0.9952  -4.3422   0.0000   0.2383
   9.000   1.0044   0.00916   0.00453   0.0007  0.0200  0.9969  -4.8147   0.0000   0.2396
   9.500   1.0666   0.00964   0.00498  -0.0009  0.0180  0.9984  -5.3042   0.0000   0.2406
  10.000   1.1277   0.01016   0.00549  -0.0024  0.0163  0.9997  -5.8186   0.0000   0.2412
  10.500   1.1762   0.01064   0.00596  -0.0011  0.0151  1.0000  -6.3084   0.0000   0.2394
  11.000   1.2212   0.01115   0.00647   0.0009  0.0140  1.0000  -6.7953   0.0000   0.2370
  11.500   1.2682   0.01168   0.00701   0.0024  0.0132  1.0000  -7.3087   0.0000   0.2352
  12.000   1.3155   0.01234   0.00767   0.0037  0.0121  1.0000  -7.8348   0.0000   0.2335
  12.500   1.3639   0.01291   0.00826   0.0047  0.0117  1.0000  -8.3922   0.0000   0.2321
  13.000   1.4110   0.01359   0.00896   0.0059  0.0111  1.0000  -8.9757   0.0000   0.2306
  13.500   1.4561   0.01441   0.00980   0.0073  0.0102  1.0000  -9.5596   0.0000   0.2289
  14.000   1.5016   0.01512   0.01054   0.0086  0.0099  1.0000  -10.1673   0.0000   0.2273
  14.500   1.5451   0.01593   0.01138   0.0101  0.0095  1.0000  -10.7757   0.0000   0.2256
  15.000   1.5855   0.01687   0.01236   0.0120  0.0091  1.0000  -11.3778   0.0000   0.2237
  15.500   1.6212   0.01804   0.01358   0.0145  0.0085  1.0000  -11.9537   0.0000   0.2214
  16.000   1.6532   0.01902   0.01461   0.0177  0.0084  1.0000  -12.5270   0.0000   0.2187
  16.500   1.6799   0.02020   0.01586   0.0213  0.0082  1.0000  -13.0713   0.0000   0.2158
  17.000   1.7039   0.02167   0.01741   0.0247  0.0080  1.0000  -13.6018   0.0000   0.2130
  17.500   1.7241   0.02355   0.01937   0.0277  0.0078  1.0000  -14.1289   0.0000   0.2103
  18.000   1.7399   0.02598   0.02189   0.0303  0.0075  1.0000  -14.6228   0.0000   0.2079
  18.500   1.7495   0.02928   0.02530   0.0321  0.0072  1.0000  -15.0609   0.0000   0.2058
  19.000   1.7510   0.03383   0.02999   0.0328  0.0069  1.0000  -15.4189   0.0000   0.2042
  19.500   1.7541   0.03878   0.03507   0.0323  0.0068  1.0000  -15.7915   0.0000   0.2033
  20.000   1.7483   0.04520   0.04164   0.0305  0.0068  1.0000  -16.0720   0.0000   0.2029
  20.500   1.7306   0.05360   0.05022   0.0274  0.0067  1.0000  -16.2201   0.0000   0.2031
  21.000   1.6973   0.06469   0.06152   0.0224  0.0067  1.0000  -16.1851   0.0000   0.2043
  21.500   1.6423   0.07953   0.07661   0.0151  0.0067  1.0000  -15.8839   0.0000   0.2068
  22.000   1.5598   0.09944   0.09683   0.0046  0.0067  1.0000  -15.2121   0.0000   0.2115
  22.500   1.4542   0.12450   0.12223  -0.0102  0.0068  1.0000  -14.1397   0.0000   0.2200
  23.000   1.3369   0.15385   0.15196  -0.0304  0.0068  1.0000  -12.6744   0.0000   0.2346
  23.500   1.2437   0.18116   0.17959  -0.0513  0.0068  1.0000  -11.2461   0.0000   0.2522
  24.000   1.1982   0.19981   0.19842  -0.0663  0.0068  1.0000  -10.4010   0.0000   0.2655
  24.500   1.1766   0.21370   0.21243  -0.0777  0.0066  1.0000  -9.8914   0.0000   0.2754
  25.000   1.1659   0.22513   0.22395  -0.0874  0.0065  1.0000  -9.5422   0.0000   0.2833
  25.500   1.1598   0.23567   0.23456  -0.0965  0.0062  1.0000  -9.2388   0.0000   0.2905
  26.000   1.1575   0.24540   0.24433  -0.1049  0.0059  1.0000  -8.9800   0.0000   0.2970
  26.500   1.1598   0.25381   0.25277  -0.1125  0.0055  1.0000  -8.8077   0.0000   0.3022
  27.000   1.1623   0.26216   0.26118  -0.1201  0.0054  1.0000  -8.6146   0.0000   0.3075
  27.500   1.1593   0.27293   0.27204  -0.1291  0.0051  1.0000  -8.1725   0.0000   0.3148
  28.000   1.1466   0.28907   0.28826  -0.1412  0.0042  1.0000  -7.0575   0.0000   0.3268


