xflr5 v6.33

 Calculated polar for: NACA 0012-64

 1 1 Reynolds number fixed          Mach number fixed         

 xtrf =   1.000 (top)        1.000 (bottom)
 Mach =   0.000     Re =     3.500 e 6     Ncrit =   9.000

  alpha     CL        CD       CDp       Cm    Top Xtr Bot Xtr   Cpmin    Chinge    XCp    
 ------- -------- --------- --------- -------- ------- ------- -------- --------- ---------
 -26.000  -1.0099   0.26969   0.26869   0.0916  1.0000  0.0043  -7.0066   0.0000   0.2986
 -25.500  -1.0006   0.26240   0.26138   0.0856  1.0000  0.0047  -7.0506   0.0000   0.2946
 -25.000  -0.9997   0.25175   0.25068   0.0779  1.0000  0.0051  -7.4166   0.0000   0.2877
 -24.500  -0.9943   0.24323   0.24213   0.0713  1.0000  0.0055  -7.5395   0.0000   0.2826
 -24.000  -0.9882   0.23516   0.23405   0.0651  1.0000  0.0059  -7.5933   0.0000   0.2778
 -23.500  -0.9912   0.22418   0.22301   0.0572  1.0000  0.0063  -7.8969   0.0000   0.2704
 -23.000  -0.9980   0.21233   0.21109   0.0488  1.0000  0.0067  -8.2349   0.0000   0.2625
 -22.500  -1.0487   0.18915   0.18777   0.0333  1.0000  0.0073  -9.4979   0.0000   0.2456
 -22.000  -1.4230   0.10495   0.10259  -0.0188  1.0000  0.0063  -15.5454   0.0000   0.2008
 -21.500  -1.5466   0.07683   0.07401  -0.0343  1.0000  0.0061  -16.8945   0.0000   0.1935
 -21.000  -1.5957   0.06263   0.05953  -0.0413  1.0000  0.0062  -17.1531   0.0000   0.1914
 -20.500  -1.6215   0.05290   0.04959  -0.0451  1.0000  0.0063  -17.0837   0.0000   0.1910
 -20.000  -1.6341   0.04570   0.04221  -0.0468  1.0000  0.0064  -16.8370   0.0000   0.1916
 -19.500  -1.6375   0.04018   0.03652  -0.0471  1.0000  0.0065  -16.4752   0.0000   0.1928
 -19.000  -1.6381   0.03548   0.03167  -0.0463  1.0000  0.0067  -16.0780   0.0000   0.1946
 -18.500  -1.6369   0.03135   0.02739  -0.0444  1.0000  0.0071  -15.6595   0.0000   0.1970
 -18.000  -1.6281   0.02817   0.02408  -0.0420  1.0000  0.0075  -15.1788   0.0000   0.1994
 -17.500  -1.6129   0.02568   0.02149  -0.0394  1.0000  0.0078  -14.6414   0.0000   0.2020
 -17.000  -1.5924   0.02370   0.01940  -0.0366  1.0000  0.0081  -14.0620   0.0000   0.2045
 -16.500  -1.5729   0.02174   0.01734  -0.0333  1.0000  0.0088  -13.5049   0.0000   0.2073
 -16.000  -1.5492   0.02013   0.01565  -0.0299  1.0000  0.0094  -12.9175   0.0000   0.2101
 -15.500  -1.5207   0.01887   0.01432  -0.0269  1.0000  0.0099  -12.3209   0.0000   0.2128
 -15.000  -1.4927   0.01761   0.01300  -0.0234  1.0000  0.0110  -11.7428   0.0000   0.2157
 -14.500  -1.4619   0.01659   0.01193  -0.0200  1.0000  0.0120  -11.1513   0.0000   0.2186
 -14.000  -1.4323   0.01568   0.01099  -0.0160  1.0000  0.0133  -10.5796   0.0000   0.2219
 -13.500  -1.4021   0.01500   0.01027  -0.0118  1.0000  0.0144  -10.0124   0.0000   0.2256
 -13.000  -1.3753   0.01439   0.00963  -0.0066  1.0000  0.0155  -9.4811   0.0000   0.2300
 -12.500  -1.3338   0.01375   0.00898  -0.0046  0.9994  0.0168  -8.8684   0.0000   0.2321
 -12.000  -1.2774   0.01317   0.00838  -0.0056  0.9981  0.0175  -8.1837   0.0000   0.2320
 -11.500  -1.2208   0.01248   0.00769  -0.0067  0.9967  0.0190  -7.5245   0.0000   0.2316
 -11.000  -1.1620   0.01197   0.00718  -0.0082  0.9957  0.0202  -6.8720   0.0000   0.2308
 -10.500  -1.1026   0.01154   0.00676  -0.0097  0.9945  0.0208  -6.2406   0.0000   0.2298
 -10.000  -1.0464   0.01091   0.00610  -0.0105  0.9917  0.0220  -5.6682   0.0000   0.2292
  -9.500  -0.9892   0.01041   0.00561  -0.0114  0.9885  0.0231  -5.1544   0.0000   0.2283
  -9.000  -0.9366   0.01001   0.00521  -0.0111  0.9825  0.0239  -4.6920   0.0000   0.2285
  -8.500  -0.8855   0.00967   0.00486  -0.0104  0.9756  0.0246  -4.2528   0.0000   0.2292
  -8.000  -0.8361   0.00924   0.00440  -0.0093  0.9676  0.0254  -3.8564   0.0000   0.2304
  -7.500  -0.7863   0.00882   0.00395  -0.0083  0.9587  0.0270  -3.4950   0.0000   0.2315
  -7.000  -0.7343   0.00848   0.00361  -0.0077  0.9498  0.0280  -3.1720   0.0000   0.2320
  -6.500  -0.6815   0.00817   0.00328  -0.0073  0.9407  0.0288  -2.8915   0.0000   0.2323
  -6.000  -0.6284   0.00787   0.00295  -0.0069  0.9308  0.0296  -2.6233   0.0000   0.2324
  -5.500  -0.5753   0.00755   0.00262  -0.0064  0.9203  0.0320  -2.3655   0.0000   0.2325
  -5.000  -0.5213   0.00730   0.00235  -0.0062  0.9085  0.0339  -2.1107   0.0000   0.2322
  -4.500  -0.4675   0.00702   0.00209  -0.0059  0.8959  0.0407  -1.8674   0.0000   0.2318
  -4.000  -0.4145   0.00664   0.00182  -0.0054  0.8831  0.0653  -1.6365   0.0000   0.2315
  -3.500  -0.3602   0.00638   0.00161  -0.0052  0.8695  0.0841  -1.4230   0.0000   0.2303
  -3.000  -0.3063   0.00609   0.00142  -0.0050  0.8549  0.1141  -1.2183   0.0000   0.2288
  -2.500  -0.2531   0.00575   0.00124  -0.0046  0.8388  0.1659  -1.0336   0.0000   0.2271
  -2.000  -0.2000   0.00546   0.00108  -0.0041  0.8168  0.2215  -0.8591   0.0000   0.2246
  -1.500  -0.1510   0.00491   0.00088  -0.0030  0.7854  0.3515  -0.6987   0.0000   0.2257
  -1.000  -0.1019   0.00440   0.00073  -0.0018  0.7527  0.4841  -0.5446   0.0000   0.2277
  -0.500  -0.0509   0.00414   0.00065  -0.0009  0.7129  0.5780  -0.4244   0.0000   0.2271
   0.000   0.0000   0.00407   0.00062  -0.0000  0.6515  0.6515  -0.3385   0.0000   0.4773
   0.500   0.0509   0.00414   0.00065   0.0009  0.5780  0.7129  -0.4244   0.0000   0.2271
   1.000   0.1019   0.00440   0.00073   0.0018  0.4841  0.7527  -0.5446   0.0000   0.2277
   1.500   0.1510   0.00491   0.00088   0.0030  0.3515  0.7854  -0.6988   0.0000   0.2257
   2.000   0.2000   0.00546   0.00108   0.0041  0.2215  0.8168  -0.8592   0.0000   0.2246
   2.500   0.2531   0.00575   0.00124   0.0046  0.1658  0.8388  -1.0336   0.0000   0.2271
   3.000   0.3063   0.00609   0.00142   0.0050  0.1141  0.8549  -1.2183   0.0000   0.2288
   3.500   0.3603   0.00638   0.00161   0.0052  0.0841  0.8695  -1.4231   0.0000   0.2303
   4.000   0.4146   0.00664   0.00182   0.0054  0.0653  0.8831  -1.6366   0.0000   0.2315
   4.500   0.4676   0.00702   0.00209   0.0059  0.0407  0.8959  -1.8675   0.0000   0.2318
   5.000   0.5214   0.00730   0.00235   0.0061  0.0339  0.9085  -2.1108   0.0000   0.2322
   5.500   0.5754   0.00755   0.00262   0.0064  0.0320  0.9203  -2.3657   0.0000   0.2326
   6.000   0.6285   0.00787   0.00295   0.0068  0.0296  0.9308  -2.6235   0.0000   0.2325
   6.500   0.6816   0.00817   0.00328   0.0072  0.0288  0.9407  -2.8918   0.0000   0.2323
   7.000   0.7344   0.00848   0.00361   0.0077  0.0280  0.9498  -3.1723   0.0000   0.2320
   7.500   0.7864   0.00882   0.00395   0.0083  0.0270  0.9586  -3.4954   0.0000   0.2315
   8.000   0.8362   0.00924   0.00440   0.0093  0.0254  0.9676  -3.8569   0.0000   0.2304
   8.500   0.8856   0.00967   0.00486   0.0104  0.0246  0.9755  -4.2534   0.0000   0.2292
   9.000   0.9367   0.01001   0.00521   0.0111  0.0239  0.9825  -4.6927   0.0000   0.2286
   9.500   0.9894   0.01041   0.00561   0.0113  0.0231  0.9885  -5.1550   0.0000   0.2284
  10.000   1.0465   0.01091   0.00610   0.0104  0.0220  0.9917  -5.6689   0.0000   0.2292
  10.500   1.1028   0.01154   0.00676   0.0096  0.0208  0.9945  -6.2414   0.0000   0.2298
  11.000   1.1622   0.01197   0.00718   0.0082  0.0202  0.9957  -6.8731   0.0000   0.2308
  11.500   1.2211   0.01248   0.00769   0.0067  0.0190  0.9967  -7.5258   0.0000   0.2316
  12.000   1.2777   0.01317   0.00838   0.0056  0.0175  0.9981  -8.1852   0.0000   0.2320
  12.500   1.3341   0.01375   0.00898   0.0045  0.0168  0.9994  -8.8701   0.0000   0.2322
  13.000   1.3752   0.01439   0.00962   0.0066  0.0155  1.0000  -9.4804   0.0000   0.2299
  13.500   1.4022   0.01499   0.01027   0.0118  0.0144  1.0000  -10.0133   0.0000   0.2256
  14.000   1.4328   0.01568   0.01099   0.0159  0.0133  1.0000  -10.5831   0.0000   0.2220
  14.500   1.4625   0.01659   0.01193   0.0199  0.0120  1.0000  -11.1559   0.0000   0.2187
  15.000   1.4934   0.01761   0.01300   0.0233  0.0110  1.0000  -11.7480   0.0000   0.2158
  15.500   1.5216   0.01887   0.01432   0.0267  0.0099  1.0000  -12.3274   0.0000   0.2129
  16.000   1.5502   0.02012   0.01565   0.0298  0.0094  1.0000  -12.9248   0.0000   0.2103
  16.500   1.5740   0.02173   0.01734   0.0331  0.0088  1.0000  -13.5133   0.0000   0.2075
  17.000   1.5937   0.02369   0.01939   0.0364  0.0081  1.0000  -14.0726   0.0000   0.2046
  17.500   1.6143   0.02566   0.02147   0.0391  0.0078  1.0000  -14.6533   0.0000   0.2021
  18.000   1.6296   0.02815   0.02406   0.0418  0.0075  1.0000  -15.1920   0.0000   0.1996
  18.500   1.6386   0.03133   0.02736   0.0442  0.0071  1.0000  -15.6744   0.0000   0.1972
  19.000   1.6400   0.03545   0.03163   0.0460  0.0067  1.0000  -16.0945   0.0000   0.1948
  19.500   1.6399   0.04010   0.03645   0.0468  0.0065  1.0000  -16.4975   0.0000   0.1931
  20.000   1.6367   0.04560   0.04211   0.0465  0.0064  1.0000  -16.8618   0.0000   0.1918
  20.500   1.6244   0.05277   0.04946   0.0448  0.0063  1.0000  -17.1116   0.0000   0.1912
  21.000   1.5989   0.06247   0.05937   0.0410  0.0062  1.0000  -17.1851   0.0000   0.1916
  21.500   1.5502   0.07663   0.07381   0.0340  0.0061  1.0000  -16.9307   0.0000   0.1937
  22.000   1.4292   0.10432   0.10194   0.0188  0.0063  1.0000  -15.6188   0.0000   0.2009
  22.500   1.0499   0.18964   0.18826  -0.0338  0.0073  1.0000  -9.4956   0.0000   0.2460
  23.000   0.9996   0.21285   0.21161  -0.0493  0.0067  1.0000  -8.2407   0.0000   0.2628
  23.500   0.9929   0.22480   0.22363  -0.0577  0.0063  1.0000  -7.9020   0.0000   0.2708
  24.000   0.9899   0.23586   0.23474  -0.0655  0.0059  1.0000  -7.5997   0.0000   0.2781
  24.500   0.9961   0.24408   0.24297  -0.0718  0.0055  1.0000  -7.5465   0.0000   0.2829
  25.000   1.0015   0.25275   0.25167  -0.0784  0.0051  1.0000  -7.4196   0.0000   0.2881
  25.500   1.0025   0.26350   0.26248  -0.0861  0.0046  1.0000  -7.0566   0.0000   0.2950
  26.000   1.0119   0.27084   0.26984  -0.0921  0.0043  1.0000  -7.0166   0.0000   0.2989


