xflr5 v6.33

 Calculated polar for: NACA 0012-64

 1 1 Reynolds number fixed          Mach number fixed         

 xtrf =   1.000 (top)        1.000 (bottom)
 Mach =   0.000     Re =     0.800 e 6     Ncrit =   9.000

  alpha     CL        CD       CDp       Cm    Top Xtr Bot Xtr   Cpmin    Chinge    XCp    
 ------- -------- --------- --------- -------- ------- ------- -------- --------- ---------
 -28.000  -1.0214   0.32749   0.32554   0.1223  1.0000  0.0057  -2.1159   0.0000   0.3282
 -27.500  -1.0066   0.32195   0.31999   0.1171  1.0000  0.0063  -2.1384   0.0000   0.3261
 -27.000  -0.9914   0.31428   0.31232   0.1112  1.0000  0.0066  -2.3593   0.0000   0.3228
 -26.500  -0.9770   0.31020   0.30823   0.1069  1.0000  0.0067  -2.2131   0.0000   0.3215
 -26.000  -0.9620   0.30556   0.30358   0.1021  1.0000  0.0070  -2.1305   0.0000   0.3196
 -25.500  -0.9467   0.30029   0.29830   0.0973  1.0000  0.0075  -2.1010   0.0000   0.3175
 -21.500  -0.5385   0.21692   0.21511   0.0197  1.0000  0.0128  -1.4232   0.0000   0.2685
 -21.000  -0.5318   0.21195   0.21014   0.0172  1.0000  0.0141  -1.4278   0.0000   0.2646
 -20.500  -0.5338   0.20422   0.20240   0.0138  1.0000  0.0149  -1.7035   0.0000   0.2580
 -20.000  -0.5234   0.20073   0.19889   0.0120  1.0000  0.0153  -1.5696   0.0000   0.2558
 -19.500  -0.5160   0.19638   0.19454   0.0097  1.0000  0.0164  -1.5240   0.0000   0.2523
 -18.500  -1.2265   0.08501   0.08190  -0.0299  1.0000  0.0151  -11.0993   0.0000   0.1984
 -18.000  -1.2733   0.06914   0.06573  -0.0388  1.0000  0.0152  -11.4061   0.0000   0.1936
 -17.500  -1.2974   0.05831   0.05466  -0.0443  1.0000  0.0155  -11.4015   0.0000   0.1913
 -17.000  -1.3051   0.05087   0.04700  -0.0471  1.0000  0.0160  -11.1986   0.0000   0.1906
 -16.500  -1.3057   0.04508   0.04101  -0.0483  1.0000  0.0166  -10.9157   0.0000   0.1909
 -16.000  -1.3010   0.04041   0.03608  -0.0483  1.0000  0.0173  -10.5981   0.0000   0.1920
 -15.500  -1.2991   0.03596   0.03140  -0.0471  1.0000  0.0181  -10.2984   0.0000   0.1940
 -15.000  -1.2809   0.03340   0.02875  -0.0457  1.0000  0.0189  -9.8435   0.0000   0.1956
 -14.500  -1.2591   0.03131   0.02653  -0.0438  1.0000  0.0199  -9.3729   0.0000   0.1974
 -14.000  -1.2363   0.02945   0.02442  -0.0415  1.0000  0.0208  -8.9134   0.0000   0.1996
 -13.500  -1.2213   0.02697   0.02182  -0.0379  1.0000  0.0218  -8.5171   0.0000   0.2030
 -13.000  -1.1948   0.02569   0.02047  -0.0349  1.0000  0.0228  -8.0311   0.0000   0.2056
 -12.500  -1.1679   0.02453   0.01914  -0.0315  1.0000  0.0240  -7.5620   0.0000   0.2087
 -12.000  -1.1444   0.02307   0.01747  -0.0271  1.0000  0.0251  -7.1374   0.0000   0.2128
 -11.500  -1.1257   0.02173   0.01609  -0.0214  1.0000  0.0262  -6.7356   0.0000   0.2182
 -11.000  -1.1022   0.02091   0.01520  -0.0160  1.0000  0.0273  -6.3109   0.0000   0.2234
 -10.500  -1.0780   0.02021   0.01438  -0.0105  1.0000  0.0285  -5.8966   0.0000   0.2288
 -10.000  -1.0569   0.01910   0.01313  -0.0045  1.0000  0.0296  -5.5338   0.0000   0.2350
  -9.500  -1.0358   0.01798   0.01198   0.0015  1.0000  0.0308  -5.1945   0.0000   0.2413
  -9.000  -0.9976   0.01716   0.01110   0.0042  0.9992  0.0322  -4.7935   0.0000   0.2447
  -8.500  -0.9356   0.01637   0.01021   0.0021  0.9965  0.0338  -4.3228   0.0000   0.2432
  -8.000  -0.8788   0.01491   0.00868   0.0007  0.9934  0.0356  -3.9059   0.0000   0.2423
  -7.500  -0.8173   0.01404   0.00779  -0.0013  0.9899  0.0376  -3.5080   0.0000   0.2404
  -7.000  -0.7521   0.01330   0.00697  -0.0040  0.9876  0.0394  -3.1365   0.0000   0.2371
  -6.500  -0.6937   0.01235   0.00599  -0.0052  0.9826  0.0419  -2.8332   0.0000   0.2353
  -6.000  -0.6275   0.01168   0.00531  -0.0080  0.9799  0.0453  -2.5481   0.0000   0.2304
  -5.500  -0.5623   0.01098   0.00464  -0.0106  0.9767  0.0516  -2.2838   0.0000   0.2247
  -5.000  -0.5009   0.01029   0.00407  -0.0122  0.9715  0.0717  -2.0351   0.0000   0.2195
  -4.500  -0.4430   0.00960   0.00358  -0.0130  0.9655  0.1084  -1.7933   0.0000   0.2146
  -4.000  -0.3876   0.00888   0.00313  -0.0133  0.9585  0.1692  -1.5723   0.0000   0.2099
  -3.500  -0.3398   0.00816   0.00274  -0.0119  0.9481  0.2512  -1.3768   0.0000   0.2095
  -3.000  -0.2983   0.00703   0.00229  -0.0093  0.9362  0.4203  -1.1992   0.0000   0.2137
  -2.500  -0.2565   0.00612   0.00198  -0.0065  0.9238  0.5822  -1.0356   0.0000   0.2198
  -2.000  -0.2100   0.00561   0.00183  -0.0043  0.9115  0.6855  -0.8717   0.0000   0.2248
  -1.500  -0.1589   0.00537   0.00174  -0.0030  0.8989  0.7430  -0.7067   0.0000   0.2264
  -1.000  -0.1057   0.00524   0.00169  -0.0022  0.8858  0.7819  -0.5467   0.0000   0.2251
  -0.500  -0.0525   0.00516   0.00166  -0.0012  0.8685  0.8142  -0.4247   0.0000   0.2226
   0.000  -0.0000   0.00512   0.00163   0.0000  0.8433  0.8433  -0.3372   0.0000   0.6122
   0.500   0.0525   0.00516   0.00166   0.0012  0.8142  0.8685  -0.4247   0.0000   0.2226
   1.000   0.1057   0.00524   0.00169   0.0022  0.7819  0.8858  -0.5467   0.0000   0.2251
   1.500   0.1589   0.00537   0.00174   0.0030  0.7430  0.8989  -0.7067   0.0000   0.2264
   2.000   0.2100   0.00561   0.00183   0.0043  0.6855  0.9115  -0.8717   0.0000   0.2248
   2.500   0.2565   0.00612   0.00198   0.0065  0.5822  0.9238  -1.0357   0.0000   0.2199
   3.000   0.2983   0.00703   0.00229   0.0093  0.4203  0.9362  -1.1992   0.0000   0.2137
   3.500   0.3398   0.00816   0.00274   0.0119  0.2512  0.9481  -1.3768   0.0000   0.2096
   4.000   0.3876   0.00888   0.00313   0.0133  0.1692  0.9585  -1.5724   0.0000   0.2099
   4.500   0.4430   0.00960   0.00358   0.0130  0.1084  0.9655  -1.7933   0.0000   0.2146
   5.000   0.5009   0.01029   0.00407   0.0122  0.0717  0.9715  -2.0351   0.0000   0.2195
   5.500   0.5622   0.01098   0.00464   0.0106  0.0516  0.9767  -2.2838   0.0000   0.2247
   6.000   0.6276   0.01168   0.00531   0.0080  0.0452  0.9799  -2.5483   0.0000   0.2304
   6.500   0.6938   0.01234   0.00599   0.0052  0.0419  0.9826  -2.8333   0.0000   0.2353
   7.000   0.7522   0.01330   0.00697   0.0040  0.0394  0.9876  -3.1367   0.0000   0.2371
   7.500   0.8174   0.01404   0.00779   0.0013  0.0376  0.9899  -3.5083   0.0000   0.2404
   8.000   0.8789   0.01491   0.00868  -0.0007  0.0356  0.9935  -3.9062   0.0000   0.2423
   8.500   0.9357   0.01637   0.01020  -0.0021  0.0338  0.9966  -4.3234   0.0000   0.2432
   9.000   0.9978   0.01716   0.01109  -0.0043  0.0322  0.9992  -4.7941   0.0000   0.2447
   9.500   1.0357   0.01798   0.01197  -0.0015  0.0308  1.0000  -5.1940   0.0000   0.2413
  10.000   1.0569   0.01909   0.01312   0.0045  0.0296  1.0000  -5.5335   0.0000   0.2350
  10.500   1.0779   0.02021   0.01437   0.0105  0.0285  1.0000  -5.8963   0.0000   0.2288
  11.000   1.1022   0.02091   0.01519   0.0160  0.0273  1.0000  -6.3112   0.0000   0.2234
  11.500   1.1259   0.02173   0.01609   0.0213  0.0262  1.0000  -6.7370   0.0000   0.2182
  12.000   1.1448   0.02308   0.01748   0.0270  0.0251  1.0000  -7.1394   0.0000   0.2129
  12.500   1.1684   0.02453   0.01914   0.0314  0.0240  1.0000  -7.5653   0.0000   0.2088
  13.000   1.1955   0.02569   0.02046   0.0348  0.0228  1.0000  -8.0353   0.0000   0.2058
  13.500   1.2221   0.02696   0.02181   0.0378  0.0218  1.0000  -8.5222   0.0000   0.2031
  14.000   1.2374   0.02943   0.02441   0.0413  0.0208  1.0000  -8.9198   0.0000   0.1997
  14.500   1.2602   0.03130   0.02652   0.0437  0.0198  1.0000  -9.3803   0.0000   0.1976
  15.000   1.2823   0.03337   0.02872   0.0455  0.0188  1.0000  -9.8529   0.0000   0.1958
  15.500   1.3005   0.03593   0.03138   0.0469  0.0181  1.0000  -10.3078   0.0000   0.1942
  16.000   1.3027   0.04037   0.03603   0.0481  0.0173  1.0000  -10.6099   0.0000   0.1922
  16.500   1.3076   0.04502   0.04095   0.0481  0.0166  1.0000  -10.9296   0.0000   0.1912
  17.000   1.3074   0.05077   0.04691   0.0469  0.0160  1.0000  -11.2166   0.0000   0.1909
  17.500   1.2998   0.05819   0.05453   0.0440  0.0155  1.0000  -11.4219   0.0000   0.1916
  18.000   1.2757   0.06904   0.06563   0.0385  0.0152  1.0000  -11.4258   0.0000   0.1939
  18.500   1.2288   0.08494   0.08183   0.0296  0.0151  1.0000  -11.1179   0.0000   0.1986
  19.000   1.1558   0.10658   0.10384   0.0176  0.0152  1.0000  -10.4039   0.0000   0.2063
  25.500   0.9489   0.30203   0.30003  -0.0979  0.0075  1.0000  -2.1033   0.0000   0.3178
  26.000   0.9643   0.30742   0.30544  -0.1027  0.0069  1.0000  -2.1347   0.0000   0.3200
  26.500   0.9793   0.31219   0.31021  -0.1075  0.0067  1.0000  -2.2191   0.0000   0.3218
  27.000   0.9938   0.31640   0.31444  -0.1119  0.0066  1.0000  -2.3678   0.0000   0.3232
  27.500   1.0091   0.32437   0.32241  -0.1178  0.0063  1.0000  -2.1355   0.0000   0.3265
  28.000   1.0240   0.33006   0.32811  -0.1230  0.0057  1.0000  -2.1197   0.0000   0.3286
  28.500   1.0382   0.33497   0.33304  -0.1280  0.0054  1.0000  -2.1694   0.0000   0.3304
  29.000   1.0518   0.33929   0.33737  -0.1330  0.0052  1.0000  -2.2718   0.0000   0.3320


