xflr5 v6.33

 Calculated polar for: NACA 0012-64

 1 1 Reynolds number fixed          Mach number fixed         

 xtrf =   1.000 (top)        1.000 (bottom)
 Mach =   0.000     Re =     0.300 e 6     Ncrit =   9.000

  alpha     CL        CD       CDp       Cm    Top Xtr Bot Xtr   Cpmin    Chinge    XCp    
 ------- -------- --------- --------- -------- ------- ------- -------- --------- ---------
 -28.000  -0.6137   0.28902   0.28637   0.0531  1.0000  0.0135  -1.0462   0.0000   0.3111
 -27.500  -0.6081   0.28327   0.28059   0.0503  1.0000  0.0145  -1.0808   0.0000   0.3079
 -25.000  -0.9285   0.29451   0.29125   0.0914  1.0000  0.0159  -1.9594   0.0000   0.3144
 -24.500  -0.9126   0.28867   0.28539   0.0864  1.0000  0.0172  -1.9815   0.0000   0.3117
 -24.000  -0.8983   0.28179   0.27852   0.0799  1.0000  0.0177  -2.1438   0.0000   0.3069
 -23.500  -0.8813   0.27667   0.27338   0.0768  1.0000  0.0181  -1.9916   0.0000   0.3063
 -23.000  -0.8650   0.27133   0.26803   0.0726  1.0000  0.0190  -1.9455   0.0000   0.3041
 -22.500  -0.8494   0.26472   0.26140   0.0671  1.0000  0.0207  -2.0390   0.0000   0.3000
 -20.000  -0.5226   0.20329   0.20030   0.0100  1.0000  0.0290  -1.4954   0.0000   0.2524
 -19.500  -0.5125   0.19797   0.19497   0.0087  1.0000  0.0297  -1.4323   0.0000   0.2506
 -19.000  -0.5034   0.19377   0.19075   0.0069  1.0000  0.0314  -1.3669   0.0000   0.2480
 -18.500  -0.5166   0.18816   0.18514   0.0017  1.0000  0.0340  -1.6646   0.0000   0.2372
 -18.000  -0.4986   0.18308   0.18003   0.0017  1.0000  0.0350  -1.5002   0.0000   0.2380
 -17.500  -0.4911   0.17889   0.17582  -0.0001  1.0000  0.0374  -1.4553   0.0000   0.2350
 -17.000  -0.5139   0.17232   0.16926  -0.0059  1.0000  0.0399  -1.8179   0.0000   0.2233
 -16.500  -0.4891   0.16880   0.16570  -0.0047  1.0000  0.0417  -1.5624   0.0000   0.2258
 -16.000  -0.5064   0.16364   0.16054  -0.0093  1.0000  0.0459  -1.7855   0.0000   0.2170
 -15.500  -0.5062   0.15853   0.15542  -0.0105  1.0000  0.0471  -1.7953   0.0000   0.2150
 -15.000  -0.4948   0.15542   0.15228  -0.0106  1.0000  0.0499  -1.6640   0.0000   0.2147
 -14.000  -0.5154   0.14186   0.13871  -0.0157  1.0000  0.0556  -1.8491   0.0000   0.2061
 -13.500  -0.5258   0.13420   0.13105  -0.0187  1.0000  0.0603  -1.9261   0.0000   0.2013
 -13.000  -0.5622   0.12014   0.11702  -0.0249  1.0000  0.0627  -2.2469   0.0000   0.1926
 -12.500  -0.5492   0.11562   0.11249  -0.0242  1.0000  0.0647  -2.0945   0.0000   0.1935
 -12.000  -0.5730   0.10303   0.09992  -0.0297  1.0000  0.0687  -2.2701   0.0000   0.1863
 -11.500  -1.0426   0.04040   0.03498  -0.0315  1.0000  0.0372  -5.6468   0.0000   0.2075
 -11.000  -1.0465   0.03644   0.03040  -0.0235  1.0000  0.0389  -5.5091   0.0000   0.2158
 -10.500  -1.0392   0.03239   0.02580  -0.0167  1.0000  0.0405  -5.3051   0.0000   0.2228
 -10.000  -1.0120   0.03043   0.02379  -0.0127  1.0000  0.0425  -4.9451   0.0000   0.2270
  -9.500  -0.9879   0.02834   0.02138  -0.0075  1.0000  0.0446  -4.6571   0.0000   0.2324
  -9.000  -0.9629   0.02638   0.01898  -0.0022  1.0000  0.0464  -4.3833   0.0000   0.2383
  -8.500  -0.9273   0.02388   0.01644   0.0007  1.0000  0.0486  -4.0696   0.0000   0.2419
  -8.000  -0.8943   0.02246   0.01490   0.0046  1.0000  0.0509  -3.7640   0.0000   0.2468
  -7.500  -0.8602   0.02118   0.01341   0.0084  1.0000  0.0531  -3.4764   0.0000   0.2519
  -7.000  -0.8255   0.01943   0.01162   0.0119  1.0000  0.0555  -3.2226   0.0000   0.2570
  -6.500  -0.7914   0.01838   0.01054   0.0156  1.0000  0.0582  -2.9657   0.0000   0.2628
  -6.000  -0.7558   0.01759   0.00964   0.0191  1.0000  0.0616  -2.7446   0.0000   0.2688
  -5.500  -0.7119   0.01638   0.00850   0.0205  0.9984  0.0670  -2.5159   0.0000   0.2728
  -5.000  -0.6459   0.01539   0.00753   0.0176  0.9930  0.0782  -2.2770   0.0000   0.2715
  -4.500  -0.5799   0.01427   0.00661   0.0145  0.9875  0.1134  -2.0468   0.0000   0.2696
  -4.000  -0.5184   0.01310   0.00599   0.0122  0.9804  0.2108  -1.8094   0.0000   0.2683
  -3.500  -0.4639   0.01136   0.00538   0.0109  0.9724  0.4451  -1.5975   0.0000   0.2687
  -3.000  -0.4090   0.01026   0.00523   0.0107  0.9642  0.6612  -1.3894   0.0000   0.2717
  -2.500  -0.3412   0.01003   0.00538   0.0087  0.9584  0.7723  -1.1654   0.0000   0.2713
  -2.000  -0.2785   0.01004   0.00547   0.0078  0.9491  0.8200  -0.9716   0.0000   0.2739
  -1.500  -0.2119   0.01013   0.00559   0.0061  0.9409  0.8514  -0.7798   0.0000   0.2749
  -1.000  -0.1387   0.01033   0.00580   0.0034  0.9355  0.8819  -0.5875   0.0000   0.2710
  -0.500  -0.0732   0.01070   0.00620   0.0027  0.9260  0.9043  -0.4387   0.0000   0.2836
   0.000   0.0000   0.01088   0.00639  -0.0000  0.9180  0.9180  -0.3337   0.0000   0.4672
   0.500   0.0732   0.01070   0.00620  -0.0027  0.9043  0.9260  -0.4387   0.0000   0.2836
   1.000   0.1387   0.01033   0.00580  -0.0034  0.8819  0.9355  -0.5875   0.0000   0.2710
   1.500   0.2119   0.01013   0.00559  -0.0061  0.8514  0.9409  -0.7798   0.0000   0.2748
   2.000   0.2784   0.01004   0.00547  -0.0078  0.8201  0.9491  -0.9715   0.0000   0.2739
   2.500   0.3412   0.01003   0.00538  -0.0087  0.7723  0.9584  -1.1654   0.0000   0.2713
   3.000   0.4090   0.01026   0.00523  -0.0107  0.6613  0.9642  -1.3893   0.0000   0.2717
   3.500   0.4639   0.01136   0.00538  -0.0109  0.4451  0.9724  -1.5974   0.0000   0.2687
   4.000   0.5184   0.01310   0.00599  -0.0122  0.2108  0.9804  -1.8094   0.0000   0.2684
   4.500   0.5799   0.01427   0.00661  -0.0146  0.1134  0.9875  -2.0468   0.0000   0.2697
   5.000   0.6459   0.01539   0.00753  -0.0176  0.0782  0.9930  -2.2771   0.0000   0.2715
   6.000   0.7557   0.01759   0.00963  -0.0191  0.0616  1.0000  -2.7443   0.0000   0.2687
   6.500   0.7912   0.01837   0.01054  -0.0156  0.0582  1.0000  -2.9654   0.0000   0.2627
   7.000   0.8254   0.01942   0.01162  -0.0119  0.0555  1.0000  -3.2222   0.0000   0.2570
   7.500   0.8600   0.02118   0.01340  -0.0084  0.0531  1.0000  -3.4760   0.0000   0.2519
   8.000   0.8942   0.02246   0.01489  -0.0046  0.0509  1.0000  -3.7637   0.0000   0.2468
   8.500   0.9272   0.02387   0.01644  -0.0007  0.0486  1.0000  -4.0693   0.0000   0.2419
   9.000   0.9628   0.02637   0.01897   0.0022  0.0464  1.0000  -4.3830   0.0000   0.2383
   9.500   0.9878   0.02834   0.02137   0.0075  0.0446  1.0000  -4.6569   0.0000   0.2324
  10.000   1.0120   0.03043   0.02378   0.0127  0.0425  1.0000  -4.9449   0.0000   0.2270
  10.500   1.0392   0.03239   0.02579   0.0167  0.0405  1.0000  -5.3052   0.0000   0.2228
  11.000   1.0466   0.03644   0.03040   0.0235  0.0389  1.0000  -5.5093   0.0000   0.2158
  11.500   1.0428   0.04040   0.03498   0.0314  0.0372  1.0000  -5.6477   0.0000   0.2075
  12.000   1.0471   0.04327   0.03810   0.0374  0.0357  1.0000  -5.8933   0.0000   0.2012
  12.500   1.0630   0.04623   0.04101   0.0409  0.0342  1.0000  -6.2461   0.0000   0.1977
  13.000   1.0168   0.05254   0.04791   0.0488  0.0338  1.0000  -6.1289   0.0000   0.1873
  13.500   0.9621   0.06145   0.05736   0.0511  0.0336  1.0000  -5.9177   0.0000   0.1811
  14.000   0.9045   0.07424   0.07054   0.0463  0.0338  1.0000  -5.6260   0.0000   0.1817
  16.500   0.6750   0.18532   0.18197  -0.0169  0.0382  1.0000  -2.0502   0.0000   0.2561
  17.000   0.6888   0.19194   0.18860  -0.0204  0.0354  1.0000  -2.0856   0.0000   0.2600
  17.500   0.7176   0.19635   0.19305  -0.0190  0.0341  1.0000  -2.4281   0.0000   0.2559
  18.000   0.7125   0.20716   0.20381  -0.0293  0.0315  1.0000  -1.9953   0.0000   0.2700
  18.500   0.7296   0.21284   0.20951  -0.0323  0.0298  1.0000  -2.0885   0.0000   0.2723
  19.000   0.7520   0.21914   0.21582  -0.0331  0.0290  1.0000  -2.2930   0.0000   0.2712
  19.500   0.7563   0.22780   0.22445  -0.0419  0.0267  1.0000  -1.9782   0.0000   0.2819
  20.000   0.7730   0.23358   0.23024  -0.0455  0.0254  1.0000  -2.0434   0.0000   0.2844
  20.500   0.7960   0.23931   0.23601  -0.0461  0.0248  1.0000  -2.2954   0.0000   0.2826
  21.000   0.8028   0.24752   0.24418  -0.0549  0.0232  1.0000  -1.9489   0.0000   0.2924
  21.500   0.8191   0.25349   0.25017  -0.0591  0.0219  1.0000  -1.9866   0.0000   0.2952
  22.000   0.8365   0.25876   0.25545  -0.0624  0.0212  1.0000  -2.1102   0.0000   0.2965
  22.500   0.8510   0.26582   0.26251  -0.0677  0.0207  1.0000  -2.0277   0.0000   0.3006
  23.000   0.8669   0.27249   0.26918  -0.0730  0.0190  1.0000  -1.9479   0.0000   0.3044
  23.500   0.8832   0.27791   0.27462  -0.0773  0.0181  1.0000  -1.9957   0.0000   0.3066
  25.500   0.5831   0.26117   0.25839  -0.0394  0.0172  1.0000  -1.1304   0.0000   0.2957
  26.000   0.5892   0.26675   0.26399  -0.0421  0.0159  1.0000  -1.0967   0.0000   0.2990
  26.500   0.5958   0.27176   0.26904  -0.0447  0.0152  1.0000  -1.1103   0.0000   0.3018
  31.000   1.1033   0.35884   0.35578  -0.1526  0.0100  1.0000  -2.1310   0.0000   0.3382
  31.500   1.1173   0.36446   0.36142  -0.1585  0.0096  1.0000  -2.0461   0.0000   0.3403
  32.000   1.1299   0.36923   0.36622  -0.1639  0.0090  1.0000  -2.0457   0.0000   0.3419
  32.500   1.1420   0.37366   0.37066  -0.1693  0.0086  1.0000  -2.0670   0.0000   0.3434
  33.000   1.1533   0.37772   0.37475  -0.1747  0.0083  1.0000  -2.1251   0.0000   0.3447
  33.500   1.1634   0.38168   0.37874  -0.1795  0.0081  1.0000  -2.2419   0.0000   0.3456
  34.000   1.1760   0.38688   0.38396  -0.1858  0.0080  1.0000  -2.1279   0.0000   0.3478
  34.500   1.1874   0.39167   0.38877  -0.1914  0.0076  1.0000  -2.1040   0.0000   0.3492
  35.000   1.1979   0.39584   0.39296  -0.1970  0.0072  1.0000  -2.1126   0.0000   0.3506
  35.500   1.2077   0.39978   0.39693  -0.2026  0.0069  1.0000  -2.1356   0.0000   0.3519
  36.000   1.2168   0.40337   0.40056  -0.2082  0.0066  1.0000  -2.1813   0.0000   0.3531


