xflr5 v6.33

 Calculated polar for: NACA 0012 v1

 1 1 Reynolds number fixed          Mach number fixed         

 xtrf =   1.000 (top)        1.000 (bottom)
 Mach =   0.000     Re =     4.500 e 6     Ncrit =   9.000

  alpha     CL        CD       CDp       Cm    Top Xtr Bot Xtr   Cpmin    Chinge    XCp    
 ------- -------- --------- --------- -------- ------- ------- -------- --------- ---------
 -27.500  -1.1284   0.28483   0.28399   0.1367  1.0000  0.0045  -6.7151   0.0000   0.3263
 -27.000  -1.1574   0.26246   0.26146   0.1209  1.0000  0.0054  -8.4778   0.0000   0.3084
 -26.500  -1.1526   0.25484   0.25380   0.1139  1.0000  0.0058  -8.6054   0.0000   0.3038
 -26.000  -1.1528   0.24572   0.24464   0.1058  1.0000  0.0061  -8.8626   0.0000   0.2978
 -25.500  -1.1531   0.23671   0.23558   0.0978  1.0000  0.0064  -9.0740   0.0000   0.2919
 -25.000  -1.1565   0.22690   0.22570   0.0893  1.0000  0.0066  -9.3234   0.0000   0.2853
 -24.500  -1.1618   0.21686   0.21558   0.0808  1.0000  0.0068  -9.5624   0.0000   0.2786
 -24.000  -1.1729   0.20546   0.20410   0.0713  1.0000  0.0069  -9.8813   0.0000   0.2708
 -23.500  -1.2036   0.18978   0.18827   0.0587  1.0000  0.0070  -10.5167   0.0000   0.2595
 -23.000  -1.2747   0.16610   0.16434   0.0404  1.0000  0.0071  -11.7062   0.0000   0.2431
 -22.500  -1.3644   0.14065   0.13858   0.0219  1.0000  0.0070  -12.9223   0.0000   0.2285
 -22.000  -1.4668   0.11478   0.11237   0.0054  1.0000  0.0069  -14.0751   0.0000   0.2173
 -21.500  -1.5706   0.09046   0.08769  -0.0081  1.0000  0.0068  -15.0640   0.0000   0.2099
 -21.000  -1.6425   0.07248   0.06943  -0.0173  1.0000  0.0068  -15.5842   0.0000   0.2060
 -20.500  -1.6872   0.05935   0.05606  -0.0235  1.0000  0.0069  -15.7590   0.0000   0.2041
 -20.000  -1.7125   0.04957   0.04609  -0.0276  1.0000  0.0069  -15.7019   0.0000   0.2033
 -19.500  -1.7314   0.04127   0.03758  -0.0304  1.0000  0.0070  -15.5669   0.0000   0.2032
 -19.000  -1.7388   0.03500   0.03115  -0.0315  1.0000  0.0073  -15.3045   0.0000   0.2040
 -18.500  -1.7358   0.03045   0.02648  -0.0312  1.0000  0.0076  -14.9320   0.0000   0.2054
 -18.000  -1.7254   0.02708   0.02300  -0.0298  1.0000  0.0078  -14.4889   0.0000   0.2073
 -17.500  -1.7098   0.02451   0.02033  -0.0276  1.0000  0.0080  -14.0010   0.0000   0.2095
 -17.000  -1.6900   0.02252   0.01825  -0.0248  1.0000  0.0082  -13.4824   0.0000   0.2120
 -16.500  -1.6668   0.02094   0.01659  -0.0217  1.0000  0.0083  -12.9610   0.0000   0.2147
 -16.000  -1.6405   0.01968   0.01525  -0.0183  1.0000  0.0085  -12.4230   0.0000   0.2176
 -15.500  -1.6154   0.01839   0.01389  -0.0142  1.0000  0.0089  -11.9093   0.0000   0.2209
 -15.000  -1.5797   0.01728   0.01274  -0.0118  1.0000  0.0094  -11.3290   0.0000   0.2232
 -14.500  -1.5395   0.01635   0.01176  -0.0100  1.0000  0.0098  -10.7293   0.0000   0.2251
 -14.000  -1.4964   0.01554   0.01091  -0.0084  1.0000  0.0101  -10.1244   0.0000   0.2268
 -13.500  -1.4524   0.01472   0.01005  -0.0070  1.0000  0.0106  -9.5319   0.0000   0.2285
 -13.000  -1.4075   0.01391   0.00922  -0.0056  1.0000  0.0114  -8.9477   0.0000   0.2302
 -12.500  -1.3604   0.01324   0.00853  -0.0045  1.0000  0.0119  -8.3651   0.0000   0.2317
 -12.000  -1.3129   0.01259   0.00786  -0.0034  1.0000  0.0126  -7.8171   0.0000   0.2332
 -11.500  -1.2655   0.01194   0.00721  -0.0022  1.0000  0.0136  -7.2894   0.0000   0.2348
 -11.000  -1.2181   0.01143   0.00668  -0.0008  1.0000  0.0142  -6.7745   0.0000   0.2366
 -10.500  -1.1734   0.01086   0.00611   0.0011  1.0000  0.0156  -6.2905   0.0000   0.2390
  -9.500  -1.0696   0.00987   0.00513   0.0021  0.9989  0.0184  -5.3136   0.0000   0.2413
  -9.000  -1.0075   0.00937   0.00466   0.0005  0.9973  0.0205  -4.8244   0.0000   0.2404
  -8.500  -0.9442   0.00890   0.00422  -0.0015  0.9960  0.0230  -4.3495   0.0000   0.2390
  -8.000  -0.8824   0.00846   0.00381  -0.0030  0.9930  0.0261  -3.9100   0.0000   0.2377
  -7.500  -0.8246   0.00807   0.00345  -0.0035  0.9858  0.0299  -3.5120   0.0000   0.2373
  -7.000  -0.7709   0.00771   0.00311  -0.0031  0.9742  0.0347  -3.1471   0.0000   0.2381
  -6.500  -0.7185   0.00738   0.00280  -0.0022  0.9580  0.0410  -2.8152   0.0000   0.2394
  -6.000  -0.6653   0.00707   0.00250  -0.0016  0.9381  0.0491  -2.4986   0.0000   0.2406
  -5.500  -0.6112   0.00680   0.00223  -0.0011  0.9135  0.0597  -2.2044   0.0000   0.2415
  -5.000  -0.5568   0.00654   0.00196  -0.0008  0.8840  0.0746  -1.9326   0.0000   0.2424
  -4.500  -0.5020   0.00629   0.00172  -0.0005  0.8496  0.0942  -1.6820   0.0000   0.2431
  -3.500  -0.3917   0.00586   0.00131  -0.0001  0.7687  0.1512  -1.2486   0.0000   0.2444
  -3.000  -0.3362   0.00566   0.00114   0.0000  0.7245  0.1883  -1.0673   0.0000   0.2449
  -2.500  -0.2806   0.00549   0.00100   0.0001  0.6796  0.2290  -0.9078   0.0000   0.2453
  -2.000  -0.2248   0.00535   0.00088   0.0001  0.6343  0.2726  -0.7707   0.0000   0.2457
  -1.500  -0.1687   0.00524   0.00080   0.0001  0.5890  0.3173  -0.6550   0.0000   0.2460
  -1.000  -0.1126   0.00516   0.00074   0.0001  0.5441  0.3629  -0.5589   0.0000   0.2462
  -0.500  -0.0563   0.00512   0.00070   0.0000  0.4988  0.4085  -0.4794   0.0000   0.2464
   0.000  -0.0000   0.00510   0.00069  -0.0000  0.4538  0.4538  -0.4128   0.0000   0.4107
   0.500   0.0563   0.00512   0.00070  -0.0000  0.4085  0.4989  -0.4794   0.0000   0.2464
   1.000   0.1126   0.00516   0.00074  -0.0001  0.3629  0.5441  -0.5589   0.0000   0.2462
   1.500   0.1687   0.00524   0.00080  -0.0001  0.3173  0.5890  -0.6550   0.0000   0.2460
   2.000   0.2248   0.00535   0.00088  -0.0001  0.2726  0.6343  -0.7707   0.0000   0.2457
   2.500   0.2806   0.00549   0.00100  -0.0001  0.2290  0.6796  -0.9078   0.0000   0.2453
   3.000   0.3362   0.00566   0.00114   0.0000  0.1883  0.7245  -1.0674   0.0000   0.2449
   3.500   0.3917   0.00586   0.00131   0.0002  0.1512  0.7687  -1.2486   0.0000   0.2444
   4.500   0.5020   0.00629   0.00172   0.0006  0.0942  0.8495  -1.6821   0.0000   0.2431
   5.000   0.5568   0.00654   0.00196   0.0009  0.0746  0.8840  -1.9327   0.0000   0.2424
   5.500   0.6113   0.00680   0.00223   0.0013  0.0597  0.9135  -2.2045   0.0000   0.2415
   6.000   0.6654   0.00707   0.00250   0.0018  0.0491  0.9380  -2.4987   0.0000   0.2406
   6.500   0.7186   0.00738   0.00280   0.0024  0.0410  0.9580  -2.8153   0.0000   0.2394
   7.000   0.7709   0.00771   0.00311   0.0033  0.0347  0.9742  -3.1473   0.0000   0.2381
   7.500   0.8246   0.00807   0.00345   0.0038  0.0299  0.9858  -3.5122   0.0000   0.2373
   8.000   0.8824   0.00846   0.00381   0.0033  0.0261  0.9930  -3.9102   0.0000   0.2377
   8.500   0.9443   0.00890   0.00422   0.0018  0.0230  0.9960  -4.3497   0.0000   0.2390
   9.000   1.0076   0.00937   0.00466  -0.0001  0.0205  0.9973  -4.8247   0.0000   0.2404
   9.500   1.0697   0.00987   0.00513  -0.0017  0.0184  0.9989  -5.3139   0.0000   0.2413
  10.000   1.1293   0.01042   0.00567  -0.0029  0.0165  1.0000  -5.8218   0.0000   0.2417
  10.500   1.1733   0.01086   0.00611  -0.0006  0.0156  1.0000  -6.2902   0.0000   0.2390
  11.000   1.2180   0.01143   0.00668   0.0014  0.0142  1.0000  -6.7744   0.0000   0.2366
  11.500   1.2656   0.01194   0.00721   0.0028  0.0136  1.0000  -7.2897   0.0000   0.2348
  12.000   1.3130   0.01259   0.00786   0.0041  0.0126  1.0000  -7.8175   0.0000   0.2332
  12.500   1.3605   0.01324   0.00853   0.0052  0.0119  1.0000  -8.3659   0.0000   0.2317
  13.000   1.4076   0.01391   0.00922   0.0064  0.0114  1.0000  -8.9486   0.0000   0.2302
  13.500   1.4526   0.01472   0.01005   0.0078  0.0106  1.0000  -9.5330   0.0000   0.2286
  14.000   1.4966   0.01554   0.01091   0.0093  0.0101  1.0000  -10.1258   0.0000   0.2269
  14.500   1.5397   0.01635   0.01176   0.0109  0.0098  1.0000  -10.7310   0.0000   0.2251
  15.000   1.5800   0.01728   0.01274   0.0128  0.0094  1.0000  -11.3310   0.0000   0.2232
  15.500   1.6158   0.01839   0.01389   0.0152  0.0089  1.0000  -11.9120   0.0000   0.2209
  16.000   1.6411   0.01968   0.01525   0.0193  0.0085  1.0000  -12.4272   0.0000   0.2177
  16.500   1.6675   0.02094   0.01659   0.0227  0.0083  1.0000  -12.9659   0.0000   0.2148
  17.000   1.6909   0.02251   0.01824   0.0259  0.0082  1.0000  -13.4882   0.0000   0.2121
  17.500   1.7108   0.02450   0.02032   0.0287  0.0080  1.0000  -14.0080   0.0000   0.2096
  18.000   1.7265   0.02707   0.02298   0.0309  0.0078  1.0000  -14.4971   0.0000   0.2074
  18.500   1.7370   0.03043   0.02645   0.0324  0.0076  1.0000  -14.9416   0.0000   0.2055
  19.000   1.7402   0.03496   0.03112   0.0327  0.0073  1.0000  -15.3153   0.0000   0.2041
  19.500   1.7329   0.04123   0.03754   0.0316  0.0070  1.0000  -15.5788   0.0000   0.2033
  20.000   1.7145   0.04948   0.04599   0.0289  0.0069  1.0000  -15.7196   0.0000   0.2034
  20.500   1.6896   0.05922   0.05593   0.0247  0.0069  1.0000  -15.7799   0.0000   0.2042
  21.000   1.6452   0.07230   0.06924   0.0185  0.0068  1.0000  -15.6093   0.0000   0.2061
  21.500   1.5734   0.09026   0.08750   0.0093  0.0068  1.0000  -15.0908   0.0000   0.2100
  22.000   1.4695   0.11461   0.11220  -0.0044  0.0069  1.0000  -14.1013   0.0000   0.2174
  22.500   1.3654   0.14075   0.13868  -0.0212  0.0070  1.0000  -12.9282   0.0000   0.2287
  23.000   1.2754   0.16634   0.16457  -0.0398  0.0071  1.0000  -11.7063   0.0000   0.2433
  23.500   1.2046   0.19001   0.18850  -0.0583  0.0070  1.0000  -10.5192   0.0000   0.2597
  24.000   1.1742   0.20577   0.20440  -0.0709  0.0068  1.0000  -9.8890   0.0000   0.2709
  24.500   1.1631   0.21718   0.21591  -0.0805  0.0068  1.0000  -9.5698   0.0000   0.2787
  25.000   1.1578   0.22735   0.22615  -0.0891  0.0066  1.0000  -9.3289   0.0000   0.2855
  25.500   1.1545   0.23717   0.23603  -0.0976  0.0064  1.0000  -9.0811   0.0000   0.2920
  26.000   1.1542   0.24629   0.24521  -0.1056  0.0061  1.0000  -8.8693   0.0000   0.2980
  26.500   1.1542   0.25556   0.25452  -0.1137  0.0058  1.0000  -8.6126   0.0000   0.3040
  27.000   1.1589   0.26324   0.26224  -0.1208  0.0054  1.0000  -8.4838   0.0000   0.3086
  27.500   1.1302   0.28590   0.28506  -0.1368  0.0045  1.0000  -6.7273   0.0000   0.3265


