xflr5 v6.33

 Calculated polar for: NACA 0012-64

 1 1 Reynolds number fixed          Mach number fixed         

 xtrf =   1.000 (top)        1.000 (bottom)
 Mach =   0.000     Re =     0.100 e 6     Ncrit =   9.000

  alpha     CL        CD       CDp       Cm    Top Xtr Bot Xtr   Cpmin    Chinge    XCp    
 ------- -------- --------- --------- -------- ------- ------- -------- --------- ---------
 -26.500  -0.9730   0.31117   0.30561   0.1029  1.0000  0.0339  -1.9527   0.0000   0.3183
 -24.500  -0.5677   0.25317   0.24832   0.0332  1.0000  0.0432  -1.0650   0.0000   0.2883
 -24.000  -0.5633   0.24846   0.24358   0.0301  1.0000  0.0457  -1.1223   0.0000   0.2837
 -23.500  -0.5588   0.24326   0.23835   0.0272  1.0000  0.0466  -1.1693   0.0000   0.2795
 -23.000  -0.5483   0.23744   0.23250   0.0255  1.0000  0.0488  -1.1173   0.0000   0.2780
 -22.500  -0.5421   0.23256   0.22757   0.0229  1.0000  0.0521  -1.1328   0.0000   0.2742
 -22.000  -0.5445   0.22940   0.22441   0.0190  1.0000  0.0537  -1.2432   0.0000   0.2672
 -21.500  -0.5287   0.22216   0.21712   0.0182  1.0000  0.0562  -1.1555   0.0000   0.2672
 -21.000  -0.5227   0.21747   0.21239   0.0156  1.0000  0.0601  -1.1766   0.0000   0.2632
 -20.500  -0.5250   0.21388   0.20879   0.0120  1.0000  0.0621  -1.2796   0.0000   0.2564
 -20.000  -0.5093   0.20734   0.20221   0.0112  1.0000  0.0655  -1.1901   0.0000   0.2561
 -19.500  -0.5082   0.20360   0.19843   0.0081  1.0000  0.0701  -1.2454   0.0000   0.2504
 -19.000  -0.5018   0.19799   0.19281   0.0060  1.0000  0.0724  -1.2609   0.0000   0.2469
 -18.500  -0.4919   0.19305   0.18783   0.0045  1.0000  0.0770  -1.2299   0.0000   0.2445
 -18.000  -0.5115   0.19324   0.18802  -0.0002  1.0000  0.0808  -1.4125   0.0000   0.2351
 -17.500  -0.4826   0.18366   0.17840   0.0003  1.0000  0.0853  -1.2611   0.0000   0.2366
 -17.000  -0.4913   0.18129   0.17601  -0.0031  1.0000  0.0910  -1.3633   0.0000   0.2298
 -16.500  -0.4771   0.17466   0.16935  -0.0038  1.0000  0.0949  -1.3095   0.0000   0.2285
 -16.000  -0.4844   0.17200   0.16666  -0.0065  1.0000  0.1019  -1.3762   0.0000   0.2233
 -15.500  -0.4754   0.16610   0.16075  -0.0074  1.0000  0.1057  -1.3438   0.0000   0.2214
 -15.000  -0.4914   0.16461   0.15924  -0.0098  1.0000  0.1135  -1.4337   0.0000   0.2171
 -14.500  -0.4757   0.15790   0.15249  -0.0100  1.0000  0.1184  -1.3668   0.0000   0.2163
 -14.000  -0.5146   0.15532   0.14994  -0.0141  1.0000  0.1257  -1.5616   0.0000   0.2103
 -13.500  -0.4820   0.14779   0.14235  -0.0125  1.0000  0.1341  -1.4054   0.0000   0.2120
 -13.000  -0.4926   0.14133   0.13590  -0.0144  1.0000  0.1404  -1.4607   0.0000   0.2091
 -12.500  -0.5346   0.13467   0.12930  -0.0194  1.0000  0.1497  -1.6538   0.0000   0.2025
 -12.000  -0.5118   0.12777   0.12236  -0.0182  1.0000  0.1610  -1.5396   0.0000   0.2037
 -11.500  -0.6255   0.11829   0.11278  -0.0154  1.0000  0.1627  -1.8869   0.0000   0.2139
 -10.500  -0.5098   0.10448   0.09913  -0.0204  1.0000  0.1914  -1.5038   0.0000   0.2005
 -10.000  -0.5242   0.09541   0.09013  -0.0223  1.0000  0.2028  -1.5473   0.0000   0.1987
  -9.500  -0.5467   0.08545   0.08026  -0.0245  1.0000  0.2148  -1.6107   0.0000   0.1970
  -9.000  -0.5878   0.07382   0.06877  -0.0276  1.0000  0.2274  -1.7213   0.0000   0.1957
  -8.500  -0.8559   0.03603   0.02841  -0.0114  1.0000  0.0936  -3.2048   0.0000   0.2289
  -8.000  -0.8425   0.03085   0.02268  -0.0054  1.0000  0.0948  -3.0868   0.0000   0.2362
  -7.500  -0.8206   0.02645   0.01772  -0.0001  1.0000  0.0969  -2.9371   0.0000   0.2428
  -7.000  -0.7925   0.02289   0.01353   0.0045  1.0000  0.1009  -2.7828   0.0000   0.2490
  -6.500  -0.7543   0.01943   0.00974   0.0074  1.0000  0.1054  -2.5944   0.0000   0.2535
  -6.000  -0.7145   0.01701   0.00705   0.0102  1.0000  0.1137  -2.4125   0.0000   0.2584
  -5.500  -0.6715   0.01449   0.00457   0.0124  1.0000  0.1251  -2.2345   0.0000   0.2628
  -5.000  -0.6335   0.01230   0.00263   0.0152  1.0000  0.1456  -2.0835   0.0000   0.2688
  -4.500  -0.6016   0.01028   0.00095   0.0192  1.0000  0.1887  -1.9593   0.0000   0.2770
  -4.000  -0.5802   0.00774  -0.00035   0.0244  1.0000  0.3446  -1.8429   0.0000   0.2876
  -3.500  -0.5593   0.00645   0.00027   0.0329  1.0000  0.7210  -1.6960   0.0000   0.3048
  -3.000  -0.5207   0.00701   0.00092   0.0393  1.0000  0.8273  -1.5147   0.0000   0.3218
  -2.500  -0.4675   0.00784   0.00159   0.0423  1.0000  0.8816  -1.3088   0.0000   0.3370
  -2.000  -0.3716   0.00935   0.00287   0.0367  1.0000  0.9213  -1.0374   0.0000   0.3457
  -1.500  -0.2516   0.01319   0.00662   0.0246  1.0000  0.9415  -0.7416   0.0000   0.3447
  -1.000  -0.1278   0.01573   0.00906   0.0107  1.0000  0.9716  -0.4779   0.0000   0.3302
  -0.500  -0.0385   0.01660   0.00988   0.0012  1.0000  0.9919  -0.3204   0.0000   0.2755
   0.000  -0.0000   0.01715   0.01043   0.0000  1.0000  1.0000  -0.2516   0.0000   0.3665
   0.500  -0.0028   0.02063   0.01311   0.0075  1.0000  1.0000  -0.3620   0.0000   2.9781
   1.000   0.0138   0.02087   0.01336   0.0114  0.9971  1.0000  -0.4127   0.0000  -0.6088
   1.500   0.1198   0.02149   0.01409  -0.0008  0.9776  1.0000  -0.6035   0.0000   0.2498
   2.000   0.2773   0.02105   0.01393  -0.0204  0.9427  1.0000  -0.9228   0.0000   0.3193
   2.500   0.4403   0.01892   0.01222  -0.0387  0.9047  1.0000  -1.2892   0.0000   0.3339
   3.000   0.5189   0.01715   0.01075  -0.0401  0.8555  1.0000  -1.5396   0.0000   0.3233
   3.500   0.5642   0.01576   0.00940  -0.0345  0.7625  1.0000  -1.7335   0.0000   0.3067
   4.000   0.5928   0.01628   0.00844  -0.0260  0.4337  1.0000  -1.9000   0.0000   0.2890
   4.500   0.6110   0.01945   0.00981  -0.0200  0.1997  1.0000  -2.0170   0.0000   0.2774
   5.000   0.6428   0.02141   0.01130  -0.0159  0.1494  1.0000  -2.1456   0.0000   0.2690
   5.500   0.6810   0.02327   0.01295  -0.0128  0.1265  1.0000  -2.2927   0.0000   0.2627
   6.000   0.7250   0.02551   0.01509  -0.0107  0.1142  1.0000  -2.4731   0.0000   0.2583
   6.500   0.7668   0.02761   0.01749  -0.0079  0.1057  1.0000  -2.6549   0.0000   0.2536
   7.000   0.8079   0.03068   0.02086  -0.0053  0.1007  1.0000  -2.8558   0.0000   0.2494
   7.500   0.8410   0.03388   0.02463  -0.0011  0.0965  1.0000  -3.0277   0.0000   0.2438
   8.000   0.8711   0.03764   0.02879   0.0030  0.0937  1.0000  -3.2212   0.0000   0.2386
   8.500   0.8967   0.04296   0.03446   0.0072  0.0917  1.0000  -3.3952   0.0000   0.2337
   9.000   0.9042   0.04852   0.04073   0.0141  0.0913  1.0000  -3.4667   0.0000   0.2257
  10.000   0.8656   0.06560   0.05939   0.0306  0.1033  1.0000  -3.2747   0.0000   0.2052
  11.500   0.4967   0.12049   0.11507   0.0176  0.1687  1.0000  -1.4707   0.0000   0.2041
  12.000   0.5114   0.12774   0.12234   0.0181  0.1610  1.0000  -1.5375   0.0000   0.2039
  12.500   0.5343   0.13464   0.12927   0.0194  0.1497  1.0000  -1.6519   0.0000   0.2026
  13.000   0.4926   0.14128   0.13585   0.0143  0.1404  1.0000  -1.4602   0.0000   0.2092
  13.500   0.4818   0.14774   0.14230   0.0125  0.1341  1.0000  -1.4045   0.0000   0.2121
  14.000   0.5144   0.15525   0.14987   0.0140  0.1257  1.0000  -1.5603   0.0000   0.2104
  14.500   0.4757   0.15781   0.15240   0.0100  0.1184  1.0000  -1.3664   0.0000   0.2164
  15.000   0.4912   0.16448   0.15911   0.0098  0.1135  1.0000  -1.4328   0.0000   0.2171
  15.500   0.4752   0.16597   0.16062   0.0074  0.1057  1.0000  -1.3428   0.0000   0.2214
  16.000   0.4842   0.17188   0.16655   0.0065  0.1019  1.0000  -1.3755   0.0000   0.2233
  16.500   0.4769   0.17454   0.16923   0.0038  0.0949  1.0000  -1.3085   0.0000   0.2285
  17.000   0.4911   0.18118   0.17590   0.0031  0.0910  1.0000  -1.3627   0.0000   0.2298
  17.500   0.4823   0.18354   0.17827  -0.0003  0.0853  1.0000  -1.2601   0.0000   0.2365
  18.000   0.5112   0.19313   0.18790   0.0002  0.0808  1.0000  -1.4121   0.0000   0.2350
  18.500   0.4916   0.19291   0.18769  -0.0045  0.0770  1.0000  -1.2290   0.0000   0.2444
  19.000   0.5014   0.19783   0.19266  -0.0060  0.0724  1.0000  -1.2595   0.0000   0.2468
  19.500   0.5079   0.20345   0.19829  -0.0080  0.0701  1.0000  -1.2451   0.0000   0.2503
  20.000   0.5089   0.20718   0.20204  -0.0111  0.0655  1.0000  -1.1891   0.0000   0.2560
  20.500   0.5245   0.21367   0.20858  -0.0119  0.0621  1.0000  -1.2774   0.0000   0.2564
  21.000   0.5222   0.21728   0.21221  -0.0155  0.0601  1.0000  -1.1760   0.0000   0.2631
  21.500   0.5282   0.22196   0.21692  -0.0181  0.0562  1.0000  -1.1543   0.0000   0.2671
  22.000   0.5438   0.22912   0.22413  -0.0189  0.0537  1.0000  -1.2406   0.0000   0.2671
  22.500   0.5415   0.23233   0.22734  -0.0228  0.0522  1.0000  -1.1321   0.0000   0.2741
  23.000   0.5477   0.23719   0.23225  -0.0254  0.0488  1.0000  -1.1161   0.0000   0.2779
  23.500   0.5582   0.24297   0.23807  -0.0271  0.0467  1.0000  -1.1673   0.0000   0.2794
  24.000   0.5627   0.24818   0.24329  -0.0299  0.0457  1.0000  -1.1219   0.0000   0.2835
  24.500   0.5670   0.25288   0.24803  -0.0330  0.0433  1.0000  -1.0639   0.0000   0.2881
  25.000   0.5745   0.25806   0.25326  -0.0354  0.0409  1.0000  -1.0790   0.0000   0.2907
  29.500   1.0618   0.34312   0.33773  -0.1352  0.0273  1.0000  -1.9270   0.0000   0.3320
  30.000   1.0755   0.34787   0.34252  -0.1404  0.0262  1.0000  -1.9383   0.0000   0.3337
  30.500   1.0888   0.35265   0.34734  -0.1452  0.0252  1.0000  -1.9783   0.0000   0.3351
  35.000   1.1952   0.39249   0.38753  -0.1948  0.0194  1.0000  -2.0416   0.0000   0.3493
  35.500   1.2052   0.39641   0.39150  -0.2004  0.0187  1.0000  -2.0569   0.0000   0.3506
  36.000   1.2146   0.40024   0.39538  -0.2058  0.0181  1.0000  -2.0841   0.0000   0.3517
  36.500   1.2231   0.40456   0.39975  -0.2108  0.0177  1.0000  -2.1429   0.0000   0.3525
  37.000   1.2323   0.40810   0.40332  -0.2169  0.0175  1.0000  -2.1133   0.0000   0.3541
  37.500   1.2415   0.41177   0.40705  -0.2230  0.0171  1.0000  -2.0945   0.0000   0.3556
  38.000   1.2499   0.41544   0.41076  -0.2288  0.0165  1.0000  -2.1252   0.0000   0.3568
  38.500   1.2577   0.41894   0.41431  -0.2346  0.0159  1.0000  -2.1705   0.0000   0.3580
  39.000   1.2649   0.42229   0.41772  -0.2403  0.0154  1.0000  -2.2151   0.0000   0.3590
  44.000   0.6802   0.45201   0.44909  -0.1398  0.0120  1.0000  -0.7952   0.0000   0.3825
  44.500   0.6786   0.45602   0.45316  -0.1425  0.0117  1.0000  -0.7821   0.0000   0.3845
  45.000   0.6768   0.45979   0.45698  -0.1452  0.0113  1.0000  -0.7802   0.0000   0.3864
  45.500   0.6748   0.46337   0.46062  -0.1478  0.0109  1.0000  -0.7789   0.0000   0.3884
  46.000   0.6725   0.46673   0.46403  -0.1504  0.0104  1.0000  -0.7796   0.0000   0.3903
  47.500   0.6643   0.47665   0.47411  -0.1582  0.0097  1.0000  -0.7596   0.0000   0.3961
  48.000   0.6612   0.47968   0.47719  -0.1607  0.0093  1.0000  -0.7531   0.0000   0.3980
  48.500   0.6579   0.48245   0.48002  -0.1632  0.0089  1.0000  -0.7475   0.0000   0.3999
  49.000   0.6543   0.48501   0.48263  -0.1657  0.0085  1.0000  -0.7493   0.0000   0.4018
  49.500   0.6504   0.48733   0.48501  -0.1683  0.0082  1.0000  -0.7578   0.0000   0.4037


