xflr5 v6.33

 Calculated polar for: NACA 0012-64

 1 1 Reynolds number fixed          Mach number fixed         

 xtrf =   1.000 (top)        1.000 (bottom)
 Mach =   0.000     Re =     4.400 e 6     Ncrit =   9.000

  alpha     CL        CD       CDp       Cm    Top Xtr Bot Xtr   Cpmin    Chinge    XCp    
 ------- -------- --------- --------- -------- ------- ------- -------- --------- ---------
 -27.000  -1.0307   0.28330   0.28241   0.1033  1.0000  0.0035  -6.9908   0.0000   0.3057
 -26.500  -1.0280   0.27298   0.27204   0.0957  1.0000  0.0039  -7.4167   0.0000   0.2993
 -26.000  -1.0183   0.26613   0.26517   0.0898  1.0000  0.0041  -7.4294   0.0000   0.2956
 -25.500  -1.0112   0.25818   0.25720   0.0834  1.0000  0.0045  -7.5319   0.0000   0.2910
 -25.000  -1.0026   0.25091   0.24992   0.0774  1.0000  0.0048  -7.5401   0.0000   0.2869
 -24.500  -1.0001   0.24141   0.24036   0.0703  1.0000  0.0051  -7.7491   0.0000   0.2809
 -24.000  -0.9924   0.23392   0.23286   0.0644  1.0000  0.0055  -7.7415   0.0000   0.2766
 -23.500  -0.9982   0.22215   0.22105   0.0560  1.0000  0.0060  -8.1057   0.0000   0.2686
 -23.000  -1.0197   0.20616   0.20496   0.0450  1.0000  0.0064  -8.7937   0.0000   0.2572
 -22.500  -1.4183   0.11306   0.11082  -0.0144  1.0000  0.0057  -15.7818   0.0000   0.2024
 -22.000  -1.5501   0.08343   0.08073  -0.0308  1.0000  0.0053  -17.2973   0.0000   0.1944
 -21.500  -1.6125   0.06688   0.06389  -0.0393  1.0000  0.0054  -17.7460   0.0000   0.1916
 -21.000  -1.6488   0.05546   0.05224  -0.0441  1.0000  0.0055  -17.8103   0.0000   0.1908
 -20.500  -1.6692   0.04714   0.04373  -0.0464  1.0000  0.0057  -17.6522   0.0000   0.1912
 -20.000  -1.6788   0.04086   0.03729  -0.0470  1.0000  0.0059  -17.3513   0.0000   0.1924
 -19.500  -1.6803   0.03603   0.03232  -0.0464  1.0000  0.0061  -16.9514   0.0000   0.1941
 -19.000  -1.6748   0.03222   0.02838  -0.0449  1.0000  0.0063  -16.4747   0.0000   0.1962
 -18.500  -1.6633   0.02918   0.02522  -0.0429  1.0000  0.0064  -15.9380   0.0000   0.1983
 -18.000  -1.6479   0.02664   0.02257  -0.0406  1.0000  0.0066  -15.3778   0.0000   0.2007
 -17.500  -1.6346   0.02411   0.01994  -0.0374  1.0000  0.0071  -14.8566   0.0000   0.2035
 -17.000  -1.6156   0.02212   0.01786  -0.0342  1.0000  0.0076  -14.2845   0.0000   0.2063
 -16.500  -1.5913   0.02055   0.01621  -0.0312  1.0000  0.0080  -13.6741   0.0000   0.2089
 -16.000  -1.5648   0.01917   0.01476  -0.0280  1.0000  0.0085  -13.0596   0.0000   0.2116
 -15.500  -1.5380   0.01783   0.01336  -0.0245  1.0000  0.0093  -12.4748   0.0000   0.2145
 -15.000  -1.5070   0.01680   0.01227  -0.0213  1.0000  0.0099  -11.8645   0.0000   0.2172
 -14.500  -1.4767   0.01581   0.01123  -0.0176  1.0000  0.0109  -11.2746   0.0000   0.2203
 -14.000  -1.4475   0.01499   0.01038  -0.0133  1.0000  0.0120  -10.7002   0.0000   0.2239
 -13.500  -1.4192   0.01426   0.00963  -0.0087  1.0000  0.0134  -10.1436   0.0000   0.2278
 -13.000  -1.3839   0.01365   0.00900  -0.0053  0.9996  0.0145  -9.5526   0.0000   0.2309
 -12.500  -1.3299   0.01293   0.00827  -0.0060  0.9984  0.0160  -8.8632   0.0000   0.2311
 -12.000  -1.2738   0.01231   0.00765  -0.0069  0.9971  0.0172  -8.1804   0.0000   0.2309
 -11.500  -1.2161   0.01177   0.00710  -0.0082  0.9960  0.0179  -7.5119   0.0000   0.2304
 -11.000  -1.1580   0.01117   0.00652  -0.0095  0.9952  0.0194  -6.8667   0.0000   0.2297
 -10.500  -1.1021   0.01073   0.00609  -0.0101  0.9922  0.0204  -6.2547   0.0000   0.2293
 -10.000  -1.0460   0.01035   0.00570  -0.0108  0.9884  0.0209  -5.6735   0.0000   0.2289
  -9.500  -0.9966   0.00983   0.00516  -0.0098  0.9815  0.0221  -5.1961   0.0000   0.2299
  -9.000  -0.9470   0.00943   0.00476  -0.0089  0.9741  0.0231  -4.7456   0.0000   0.2311
  -8.500  -0.8964   0.00909   0.00441  -0.0081  0.9665  0.0240  -4.3063   0.0000   0.2320
  -8.000  -0.8451   0.00879   0.00409  -0.0074  0.9579  0.0245  -3.8939   0.0000   0.2328
  -7.500  -0.7930   0.00845   0.00373  -0.0068  0.9491  0.0253  -3.5217   0.0000   0.2334
  -7.000  -0.7408   0.00807   0.00334  -0.0063  0.9401  0.0270  -3.2007   0.0000   0.2340
  -6.500  -0.6876   0.00777   0.00303  -0.0059  0.9304  0.0280  -2.9188   0.0000   0.2343
  -6.000  -0.6338   0.00752   0.00275  -0.0057  0.9200  0.0288  -2.6441   0.0000   0.2344
  -5.500  -0.5796   0.00727   0.00248  -0.0055  0.9084  0.0298  -2.3794   0.0000   0.2343
  -5.000  -0.5256   0.00700   0.00221  -0.0052  0.8957  0.0325  -2.1253   0.0000   0.2341
  -4.500  -0.4710   0.00676   0.00198  -0.0051  0.8830  0.0369  -1.8778   0.0000   0.2336
  -4.000  -0.4174   0.00644   0.00173  -0.0048  0.8694  0.0553  -1.6432   0.0000   0.2332
  -3.500  -0.3631   0.00617   0.00153  -0.0046  0.8548  0.0758  -1.4294   0.0000   0.2322
  -3.000  -0.3085   0.00593   0.00136  -0.0044  0.8393  0.0978  -1.2228   0.0000   0.2306
  -2.500  -0.2548   0.00565   0.00118  -0.0041  0.8208  0.1404  -1.0368   0.0000   0.2290
  -2.000  -0.2014   0.00540   0.00104  -0.0037  0.7930  0.1896  -0.8617   0.0000   0.2267
  -1.500  -0.1498   0.00509   0.00089  -0.0030  0.7567  0.2711  -0.6968   0.0000   0.2251
  -1.000  -0.1006   0.00458   0.00074  -0.0019  0.7209  0.4090  -0.5428   0.0000   0.2263
  -0.500  -0.0499   0.00428   0.00064  -0.0011  0.6781  0.5149  -0.4235   0.0000   0.2242
   0.000   0.0000   0.00433   0.00063  -0.0000  0.5864  0.5864  -0.3385   0.0000   0.4730
   0.500   0.0499   0.00428   0.00064   0.0011  0.5149  0.6781  -0.4235   0.0000   0.2242
   1.000   0.1006   0.00458   0.00074   0.0019  0.4090  0.7209  -0.5428   0.0000   0.2263
   1.500   0.1498   0.00509   0.00089   0.0030  0.2711  0.7567  -0.6968   0.0000   0.2251
   2.000   0.2014   0.00540   0.00104   0.0037  0.1896  0.7930  -0.8617   0.0000   0.2268
   2.500   0.2548   0.00565   0.00118   0.0041  0.1403  0.8208  -1.0369   0.0000   0.2290
   3.000   0.3085   0.00593   0.00136   0.0044  0.0978  0.8393  -1.2229   0.0000   0.2306
   3.500   0.3631   0.00617   0.00153   0.0046  0.0758  0.8548  -1.4294   0.0000   0.2322
   4.000   0.4174   0.00644   0.00173   0.0048  0.0552  0.8694  -1.6432   0.0000   0.2332
   4.500   0.4711   0.00676   0.00198   0.0051  0.0369  0.8830  -1.8779   0.0000   0.2336
   5.000   0.5256   0.00700   0.00221   0.0052  0.0325  0.8957  -2.1254   0.0000   0.2341
   5.500   0.5797   0.00727   0.00248   0.0055  0.0298  0.9084  -2.3795   0.0000   0.2343
   6.000   0.6338   0.00752   0.00275   0.0057  0.0288  0.9200  -2.6443   0.0000   0.2344
   6.500   0.6877   0.00777   0.00303   0.0059  0.0280  0.9304  -2.9190   0.0000   0.2343
   7.000   0.7409   0.00807   0.00334   0.0063  0.0270  0.9400  -3.2009   0.0000   0.2340
   7.500   0.7931   0.00845   0.00373   0.0068  0.0253  0.9491  -3.5221   0.0000   0.2335
   8.000   0.8452   0.00879   0.00409   0.0073  0.0245  0.9579  -3.8944   0.0000   0.2329
   8.500   0.8966   0.00909   0.00441   0.0080  0.0240  0.9665  -4.3069   0.0000   0.2320
   9.000   0.9472   0.00943   0.00476   0.0088  0.0231  0.9741  -4.7463   0.0000   0.2311
   9.500   0.9968   0.00983   0.00516   0.0098  0.0221  0.9815  -5.1969   0.0000   0.2300
  10.000   1.0462   0.01035   0.00570   0.0107  0.0209  0.9884  -5.6743   0.0000   0.2290
  10.500   1.1023   0.01073   0.00608   0.0101  0.0204  0.9922  -6.2556   0.0000   0.2294
  11.000   1.1582   0.01117   0.00651   0.0094  0.0194  0.9952  -6.8678   0.0000   0.2297
  11.500   1.2163   0.01177   0.00710   0.0081  0.0179  0.9961  -7.5132   0.0000   0.2305
  12.000   1.2741   0.01231   0.00765   0.0069  0.0172  0.9971  -8.1818   0.0000   0.2310
  12.500   1.3302   0.01293   0.00827   0.0059  0.0159  0.9984  -8.8648   0.0000   0.2312
  13.000   1.3842   0.01365   0.00900   0.0052  0.0145  0.9997  -9.5545   0.0000   0.2310
  13.500   1.4191   0.01426   0.00963   0.0087  0.0134  1.0000  -10.1435   0.0000   0.2278
  14.000   1.4478   0.01499   0.01038   0.0133  0.0120  1.0000  -10.7022   0.0000   0.2239
  14.500   1.4773   0.01581   0.01123   0.0175  0.0109  1.0000  -11.2789   0.0000   0.2204
  15.000   1.5077   0.01680   0.01227   0.0211  0.0099  1.0000  -11.8698   0.0000   0.2173
  15.500   1.5389   0.01783   0.01336   0.0243  0.0093  1.0000  -12.4808   0.0000   0.2146
  16.000   1.5657   0.01917   0.01475   0.0278  0.0085  1.0000  -13.0665   0.0000   0.2117
  16.500   1.5924   0.02055   0.01621   0.0309  0.0080  1.0000  -13.6827   0.0000   0.2090
  17.000   1.6168   0.02211   0.01785   0.0340  0.0076  1.0000  -14.2943   0.0000   0.2064
  17.500   1.6360   0.02410   0.01993   0.0372  0.0071  1.0000  -14.8675   0.0000   0.2037
  18.000   1.6494   0.02662   0.02256   0.0403  0.0066  1.0000  -15.3901   0.0000   0.2008
  18.500   1.6652   0.02914   0.02519   0.0427  0.0064  1.0000  -15.9542   0.0000   0.1985
  19.000   1.6768   0.03218   0.02834   0.0446  0.0063  1.0000  -16.4925   0.0000   0.1964
  19.500   1.6824   0.03597   0.03226   0.0460  0.0061  1.0000  -16.9716   0.0000   0.1943
  20.000   1.6811   0.04080   0.03722   0.0467  0.0059  1.0000  -17.3735   0.0000   0.1926
  20.500   1.6717   0.04705   0.04364   0.0461  0.0057  1.0000  -17.6768   0.0000   0.1914
  21.000   1.6515   0.05536   0.05214   0.0438  0.0055  1.0000  -17.8369   0.0000   0.1910
  21.500   1.6154   0.06677   0.06378   0.0389  0.0054  1.0000  -17.7743   0.0000   0.1918
  22.000   1.5531   0.08332   0.08062   0.0304  0.0053  1.0000  -17.3269   0.0000   0.1947
  22.500   1.4215   0.11293   0.11070   0.0141  0.0056  1.0000  -15.8145   0.0000   0.2027
  23.000   1.0213   0.20664   0.20545  -0.0454  0.0064  1.0000  -8.7985   0.0000   0.2576
  23.500   0.9998   0.22276   0.22167  -0.0565  0.0060  1.0000  -8.1113   0.0000   0.2690
  24.000   0.9941   0.23463   0.23357  -0.0648  0.0055  1.0000  -7.7473   0.0000   0.2770
  24.500   1.0019   0.24220   0.24115  -0.0708  0.0051  1.0000  -7.7554   0.0000   0.2813
  25.000   1.0044   0.25185   0.25085  -0.0780  0.0048  1.0000  -7.5474   0.0000   0.2873
  25.500   1.0131   0.25923   0.25826  -0.0839  0.0045  1.0000  -7.5387   0.0000   0.2914
  26.000   1.0203   0.26729   0.26632  -0.0903  0.0041  1.0000  -7.4401   0.0000   0.2960
  26.500   1.0299   0.27431   0.27337  -0.0963  0.0039  1.0000  -7.4213   0.0000   0.2997
  27.000   1.0328   0.28486   0.28397  -0.1039  0.0035  1.0000  -6.9960   0.0000   0.3060
  27.500   1.0383   0.29452   0.29366  -0.1109  0.0032  1.0000  -6.6155   0.0000   0.3115
  28.000   1.0272   0.32415   0.32333  -0.1233  0.0015  1.0000  -3.3844   0.0000   0.3272


