xflr5 v6.33

 Calculated polar for: NACA 0012 v1

 1 1 Reynolds number fixed          Mach number fixed         

 xtrf =   1.000 (top)        1.000 (bottom)
 Mach =   0.000     Re =     1.900 e 6     Ncrit =   9.000

  alpha     CL        CD       CDp       Cm    Top Xtr Bot Xtr   Cpmin    Chinge    XCp    
 ------- -------- --------- --------- -------- ------- ------- -------- --------- ---------
 -28.000  -1.1073   0.32124   0.32000   0.1532  1.0000  0.0035  -2.4405   0.0000   0.3479
 -27.500  -0.6713   0.29359   0.29254   0.0743  1.0000  0.0043  -1.5102   0.0000   0.3346
 -27.000  -0.6652   0.28924   0.28819   0.0717  1.0000  0.0044  -1.4213   0.0000   0.3328
 -26.500  -0.6593   0.28444   0.28338   0.0691  1.0000  0.0046  -1.3644   0.0000   0.3307
 -24.000  -1.1153   0.21984   0.21830   0.0822  1.0000  0.0088  -8.4715   0.0000   0.2848
 -23.500  -1.1197   0.20981   0.20821   0.0740  1.0000  0.0091  -8.6971   0.0000   0.2781
 -23.000  -1.1284   0.19878   0.19709   0.0651  1.0000  0.0094  -8.9710   0.0000   0.2706
 -22.500  -1.1399   0.18739   0.18559   0.0562  1.0000  0.0097  -9.2376   0.0000   0.2632
 -22.000  -1.1542   0.17563   0.17371   0.0473  1.0000  0.0099  -9.4959   0.0000   0.2558
 -21.500  -1.1736   0.16309   0.16104   0.0381  1.0000  0.0100  -9.7765   0.0000   0.2483
 -21.000  -1.2006   0.14927   0.14707   0.0285  1.0000  0.0101  -10.1066   0.0000   0.2405
 -20.500  -1.2413   0.13323   0.13083   0.0180  1.0000  0.0102  -10.5481   0.0000   0.2324
 -20.000  -1.3047   0.11366   0.11103   0.0063  1.0000  0.0102  -11.1784   0.0000   0.2237
 -19.500  -1.3888   0.09157   0.08862  -0.0057  1.0000  0.0101  -11.9294   0.0000   0.2160
 -19.000  -1.4608   0.07259   0.06933  -0.0155  1.0000  0.0101  -12.4563   0.0000   0.2108
 -18.500  -1.5060   0.05868   0.05514  -0.0225  1.0000  0.0101  -12.6537   0.0000   0.2078
 -18.000  -1.5290   0.04870   0.04492  -0.0271  1.0000  0.0102  -12.6039   0.0000   0.2064
 -17.500  -1.5419   0.04075   0.03674  -0.0300  1.0000  0.0103  -12.4432   0.0000   0.2059
 -17.000  -1.5532   0.03397   0.02975  -0.0312  1.0000  0.0106  -12.2660   0.0000   0.2065
 -16.500  -1.5484   0.02972   0.02534  -0.0304  1.0000  0.0109  -11.9360   0.0000   0.2081
 -16.000  -1.5352   0.02673   0.02223  -0.0285  1.0000  0.0112  -11.5339   0.0000   0.2102
 -15.500  -1.5169   0.02447   0.01984  -0.0259  1.0000  0.0116  -11.0954   0.0000   0.2127
 -15.000  -1.4940   0.02275   0.01800  -0.0228  1.0000  0.0120  -10.6269   0.0000   0.2155
 -14.500  -1.4717   0.02114   0.01627  -0.0190  1.0000  0.0124  -10.1727   0.0000   0.2188
 -14.000  -1.4451   0.01970   0.01474  -0.0153  1.0000  0.0130  -9.6966   0.0000   0.2220
 -13.500  -1.4080   0.01857   0.01355  -0.0131  1.0000  0.0136  -9.1622   0.0000   0.2241
 -13.000  -1.3672   0.01762   0.01251  -0.0113  1.0000  0.0142  -8.6186   0.0000   0.2260
 -12.500  -1.3275   0.01645   0.01127  -0.0092  1.0000  0.0150  -8.1009   0.0000   0.2281
 -12.000  -1.2834   0.01559   0.01036  -0.0077  1.0000  0.0159  -7.5854   0.0000   0.2298
 -11.500  -1.2388   0.01474   0.00945  -0.0062  1.0000  0.0170  -7.0869   0.0000   0.2315
 -11.000  -1.1932   0.01396   0.00865  -0.0048  1.0000  0.0182  -6.5950   0.0000   0.2333
 -10.500  -1.1477   0.01323   0.00788  -0.0032  1.0000  0.0195  -6.1196   0.0000   0.2352
 -10.000  -1.1027   0.01260   0.00723  -0.0014  1.0000  0.0211  -5.6573   0.0000   0.2374
  -9.500  -1.0591   0.01197   0.00658   0.0008  1.0000  0.0231  -5.2308   0.0000   0.2401
  -9.000  -1.0161   0.01141   0.00601   0.0032  1.0000  0.0252  -4.8267   0.0000   0.2431
  -8.500  -0.9740   0.01089   0.00549   0.0058  1.0000  0.0279  -4.4376   0.0000   0.2465
  -8.000  -0.9172   0.01035   0.00497   0.0052  0.9988  0.0317  -4.0113   0.0000   0.2468
  -7.500  -0.8514   0.00982   0.00446   0.0028  0.9968  0.0369  -3.5861   0.0000   0.2449
  -7.000  -0.7855   0.00929   0.00399   0.0003  0.9943  0.0442  -3.1796   0.0000   0.2425
  -6.500  -0.7193   0.00878   0.00354  -0.0022  0.9916  0.0546  -2.8080   0.0000   0.2395
  -6.000  -0.6544   0.00828   0.00313  -0.0043  0.9873  0.0688  -2.4630   0.0000   0.2363
  -5.500  -0.5945   0.00780   0.00276  -0.0053  0.9789  0.0883  -2.1569   0.0000   0.2344
  -5.000  -0.5401   0.00735   0.00243  -0.0049  0.9648  0.1138  -1.8910   0.0000   0.2345
  -4.500  -0.4881   0.00692   0.00212  -0.0040  0.9459  0.1463  -1.6511   0.0000   0.2358
  -4.000  -0.4358   0.00653   0.00183  -0.0031  0.9225  0.1860  -1.4320   0.0000   0.2371
  -3.500  -0.3828   0.00617   0.00159  -0.0024  0.8938  0.2314  -1.2336   0.0000   0.2382
  -2.500  -0.2751   0.00564   0.00121  -0.0014  0.8212  0.3311  -0.9008   0.0000   0.2400
  -2.000  -0.2206   0.00546   0.00107  -0.0010  0.7783  0.3823  -0.7664   0.0000   0.2408
  -1.000  -0.1107   0.00525   0.00090  -0.0004  0.6842  0.4848  -0.5579   0.0000   0.2418
  -0.500  -0.0554   0.00520   0.00086  -0.0002  0.6352  0.5355  -0.4793   0.0000   0.2420
   0.000   0.0000   0.00518   0.00085  -0.0000  0.5856  0.5856  -0.4133   0.0000   0.4495
   0.500   0.0554   0.00520   0.00086   0.0002  0.5355  0.6352  -0.4793   0.0000   0.2420
   1.000   0.1107   0.00525   0.00090   0.0004  0.4848  0.6842  -0.5579   0.0000   0.2418
   2.000   0.2206   0.00546   0.00107   0.0010  0.3823  0.7783  -0.7664   0.0000   0.2408
   2.500   0.2751   0.00564   0.00121   0.0014  0.3311  0.8212  -0.9008   0.0000   0.2400
   3.000   0.3292   0.00588   0.00138   0.0019  0.2804  0.8601  -1.0567   0.0000   0.2392
   3.500   0.3828   0.00617   0.00159   0.0025  0.2314  0.8938  -1.2337   0.0000   0.2382
   4.000   0.4358   0.00653   0.00183   0.0032  0.1860  0.9225  -1.4320   0.0000   0.2371
   4.500   0.4881   0.00692   0.00212   0.0041  0.1463  0.9459  -1.6511   0.0000   0.2358
   5.000   0.5401   0.00735   0.00243   0.0050  0.1138  0.9648  -1.8911   0.0000   0.2345
   5.500   0.5945   0.00780   0.00276   0.0054  0.0883  0.9789  -2.1569   0.0000   0.2344
   6.000   0.6544   0.00828   0.00313   0.0045  0.0688  0.9873  -2.4631   0.0000   0.2363
   6.500   0.7193   0.00878   0.00354   0.0024  0.0546  0.9916  -2.8080   0.0000   0.2395
   7.000   0.7855   0.00929   0.00399  -0.0001  0.0442  0.9943  -3.1797   0.0000   0.2425
   7.500   0.8514   0.00982   0.00446  -0.0025  0.0369  0.9968  -3.5862   0.0000   0.2449
   8.000   0.9172   0.01035   0.00497  -0.0049  0.0317  0.9988  -4.0115   0.0000   0.2468
   8.500   0.9739   0.01089   0.00549  -0.0054  0.0279  1.0000  -4.4372   0.0000   0.2464
   9.000   1.0161   0.01141   0.00601  -0.0028  0.0252  1.0000  -4.8264   0.0000   0.2431
   9.500   1.0590   0.01197   0.00658  -0.0003  0.0231  1.0000  -5.2306   0.0000   0.2401
  10.000   1.1026   0.01260   0.00723   0.0019  0.0211  1.0000  -5.6572   0.0000   0.2374
  10.500   1.1478   0.01323   0.00788   0.0037  0.0195  1.0000  -6.1197   0.0000   0.2352
  11.000   1.1933   0.01396   0.00865   0.0053  0.0182  1.0000  -6.5953   0.0000   0.2333
  11.500   1.2389   0.01474   0.00945   0.0068  0.0170  1.0000  -7.0874   0.0000   0.2316
  12.000   1.2836   0.01559   0.01036   0.0084  0.0159  1.0000  -7.5861   0.0000   0.2298
  12.500   1.3276   0.01645   0.01127   0.0099  0.0150  1.0000  -8.1019   0.0000   0.2281
  13.000   1.3674   0.01762   0.01251   0.0120  0.0141  1.0000  -8.6198   0.0000   0.2260
  13.500   1.4083   0.01857   0.01355   0.0138  0.0136  1.0000  -9.1638   0.0000   0.2242
  14.000   1.4454   0.01970   0.01474   0.0161  0.0130  1.0000  -9.6985   0.0000   0.2220
  14.500   1.4722   0.02115   0.01628   0.0198  0.0124  1.0000  -10.1754   0.0000   0.2188
  15.000   1.4946   0.02275   0.01800   0.0237  0.0120  1.0000  -10.6308   0.0000   0.2155
  15.500   1.5176   0.02447   0.01984   0.0267  0.0116  1.0000  -11.0999   0.0000   0.2128
  16.000   1.5360   0.02672   0.02222   0.0294  0.0112  1.0000  -11.5394   0.0000   0.2103
  16.500   1.5493   0.02970   0.02533   0.0314  0.0109  1.0000  -11.9424   0.0000   0.2082
  17.000   1.5542   0.03395   0.02973   0.0322  0.0106  1.0000  -12.2729   0.0000   0.2066
  17.500   1.5429   0.04075   0.03675   0.0310  0.0103  1.0000  -12.4494   0.0000   0.2060
  18.000   1.5307   0.04862   0.04484   0.0280  0.0102  1.0000  -12.6172   0.0000   0.2065
  18.500   1.5080   0.05858   0.05504   0.0234  0.0101  1.0000  -12.6695   0.0000   0.2079
  19.000   1.4630   0.07246   0.06920   0.0164  0.0101  1.0000  -12.4747   0.0000   0.2109
  19.500   1.3911   0.09142   0.08847   0.0066  0.0101  1.0000  -11.9494   0.0000   0.2161
  20.000   1.3067   0.11358   0.11094  -0.0055  0.0102  1.0000  -11.1951   0.0000   0.2239
  20.500   1.2428   0.13325   0.13086  -0.0174  0.0102  1.0000  -10.5596   0.0000   0.2325
  21.000   1.2019   0.14935   0.14714  -0.0279  0.0101  1.0000  -10.1151   0.0000   0.2407
  21.500   1.1748   0.16320   0.16114  -0.0376  0.0100  1.0000  -9.7831   0.0000   0.2484
  22.000   1.1554   0.17577   0.17385  -0.0469  0.0099  1.0000  -9.5018   0.0000   0.2560
  22.500   1.1411   0.18759   0.18580  -0.0559  0.0097  1.0000  -9.2435   0.0000   0.2634
  23.000   1.1296   0.19903   0.19734  -0.0648  0.0094  1.0000  -8.9764   0.0000   0.2708
  23.500   1.1209   0.21012   0.20853  -0.0737  0.0091  1.0000  -8.7035   0.0000   0.2783
  24.000   1.1168   0.22023   0.21869  -0.0820  0.0088  1.0000  -8.4809   0.0000   0.2850


