xflr5 v6.33

 Calculated polar for: NACA 0012 v1

 1 1 Reynolds number fixed          Mach number fixed         

 xtrf =   1.000 (top)        1.000 (bottom)
 Mach =   0.000     Re =     3.400 e 6     Ncrit =   9.000

  alpha     CL        CD       CDp       Cm    Top Xtr Bot Xtr   Cpmin    Chinge    XCp    
 ------- -------- --------- --------- -------- ------- ------- -------- --------- ---------
 -30.000  -0.6929   0.32348   0.32274   0.0877  1.0000  0.0017  -1.3330   0.0000   0.3467
 -29.500  -0.6913   0.31433   0.31358   0.0854  1.0000  0.0021  -1.6184   0.0000   0.3437
 -26.000  -1.1344   0.25143   0.25032   0.1098  1.0000  0.0064  -8.2263   0.0000   0.3035
 -25.500  -1.1413   0.23999   0.23879   0.1003  1.0000  0.0067  -8.7040   0.0000   0.2953
 -25.000  -1.1441   0.23017   0.22889   0.0919  1.0000  0.0069  -8.9737   0.0000   0.2886
 -24.500  -1.1445   0.22128   0.21995   0.0841  1.0000  0.0073  -9.1314   0.0000   0.2829
 -24.000  -1.1523   0.21057   0.20918   0.0752  1.0000  0.0075  -9.4126   0.0000   0.2756
 -23.500  -1.1668   0.19837   0.19688   0.0653  1.0000  0.0078  -9.7768   0.0000   0.2672
 -23.000  -1.1905   0.18446   0.18285   0.0543  1.0000  0.0080  -10.2361   0.0000   0.2577
 -22.500  -1.2351   0.16645   0.16466   0.0406  1.0000  0.0081  -10.9552   0.0000   0.2458
 -22.000  -1.3179   0.14189   0.13981   0.0230  1.0000  0.0080  -12.0877   0.0000   0.2313
 -21.500  -1.4283   0.11417   0.11173   0.0054  1.0000  0.0079  -13.3519   0.0000   0.2187
 -21.000  -1.5286   0.09015   0.08735  -0.0079  1.0000  0.0078  -14.2947   0.0000   0.2112
 -20.500  -1.6000   0.07203   0.06893  -0.0172  1.0000  0.0078  -14.8091   0.0000   0.2070
 -20.000  -1.6449   0.05873   0.05538  -0.0235  1.0000  0.0079  -14.9893   0.0000   0.2049
 -19.500  -1.6702   0.04889   0.04533  -0.0277  1.0000  0.0079  -14.9379   0.0000   0.2040
 -19.000  -1.6813   0.04148   0.03774  -0.0303  1.0000  0.0081  -14.7288   0.0000   0.2040
 -18.500  -1.6823   0.03582   0.03193  -0.0314  1.0000  0.0082  -14.4132   0.0000   0.2046
 -18.000  -1.6758   0.03149   0.02746  -0.0313  1.0000  0.0083  -14.0233   0.0000   0.2058
 -17.500  -1.6634   0.02818   0.02403  -0.0301  1.0000  0.0084  -13.5785   0.0000   0.2075
 -17.000  -1.6520   0.02520   0.02091  -0.0279  1.0000  0.0087  -13.1520   0.0000   0.2099
 -16.500  -1.6370   0.02283   0.01843  -0.0248  1.0000  0.0091  -12.7107   0.0000   0.2127
 -16.000  -1.6155   0.02113   0.01665  -0.0214  1.0000  0.0094  -12.2183   0.0000   0.2155
 -15.500  -1.5903   0.01980   0.01524  -0.0177  1.0000  0.0097  -11.7035   0.0000   0.2186
 -15.000  -1.5599   0.01872   0.01409  -0.0144  1.0000  0.0100  -11.1617   0.0000   0.2214
 -14.500  -1.5214   0.01776   0.01307  -0.0124  1.0000  0.0102  -10.5782   0.0000   0.2235
 -14.000  -1.4838   0.01659   0.01184  -0.0102  1.0000  0.0110  -10.0214   0.0000   0.2256
 -13.500  -1.4413   0.01571   0.01092  -0.0086  1.0000  0.0116  -9.4393   0.0000   0.2274
 -13.000  -1.3963   0.01495   0.01012  -0.0072  1.0000  0.0120  -8.8573   0.0000   0.2290
 -12.500  -1.3515   0.01411   0.00924  -0.0058  1.0000  0.0128  -8.2963   0.0000   0.2307
 -12.000  -1.3051   0.01338   0.00850  -0.0046  1.0000  0.0136  -7.7571   0.0000   0.2323
 -11.500  -1.2572   0.01279   0.00787  -0.0035  1.0000  0.0142  -7.2285   0.0000   0.2338
 -11.000  -1.2111   0.01209   0.00717  -0.0020  1.0000  0.0156  -6.7268   0.0000   0.2357
 -10.500  -1.1648   0.01158   0.00664  -0.0004  1.0000  0.0165  -6.2356   0.0000   0.2377
 -10.000  -1.1210   0.01099   0.00606   0.0018  1.0000  0.0180  -5.7738   0.0000   0.2403
  -9.500  -1.0780   0.01052   0.00558   0.0043  1.0000  0.0194  -5.3394   0.0000   0.2433
  -9.000  -1.0170   0.01001   0.00507   0.0028  0.9987  0.0215  -4.8539   0.0000   0.2427
  -8.500  -0.9537   0.00950   0.00459   0.0009  0.9971  0.0242  -4.3792   0.0000   0.2415
  -8.000  -0.8898   0.00900   0.00412  -0.0012  0.9955  0.0279  -3.9309   0.0000   0.2398
  -7.500  -0.8262   0.00854   0.00371  -0.0031  0.9930  0.0324  -3.5134   0.0000   0.2379
  -7.000  -0.7666   0.00812   0.00333  -0.0040  0.9867  0.0381  -3.1309   0.0000   0.2368
  -6.500  -0.7111   0.00774   0.00299  -0.0040  0.9760  0.0453  -2.7910   0.0000   0.2370
  -6.000  -0.6586   0.00739   0.00268  -0.0032  0.9606  0.0549  -2.4788   0.0000   0.2381
  -5.500  -0.6058   0.00706   0.00238  -0.0024  0.9410  0.0677  -2.1892   0.0000   0.2394
  -5.000  -0.5524   0.00674   0.00209  -0.0018  0.9169  0.0852  -1.9216   0.0000   0.2405
  -4.500  -0.4984   0.00645   0.00183  -0.0013  0.8878  0.1083  -1.6739   0.0000   0.2414
  -4.000  -0.4440   0.00618   0.00159  -0.0009  0.8537  0.1379  -1.4483   0.0000   0.2422
  -3.500  -0.3894   0.00592   0.00137  -0.0006  0.8151  0.1742  -1.2447   0.0000   0.2430
  -3.000  -0.3345   0.00570   0.00119  -0.0004  0.7726  0.2152  -1.0647   0.0000   0.2436
  -2.500  -0.2792   0.00552   0.00104  -0.0002  0.7281  0.2595  -0.9061   0.0000   0.2442
  -2.000  -0.2237   0.00537   0.00092  -0.0001  0.6822  0.3061  -0.7697   0.0000   0.2447
  -1.500  -0.1680   0.00526   0.00083  -0.0000  0.6356  0.3533  -0.6545   0.0000   0.2450
  -1.000  -0.1121   0.00517   0.00077  -0.0000  0.5889  0.4010  -0.5587   0.0000   0.2453
  -0.500  -0.0561   0.00512   0.00073  -0.0000  0.5423  0.4484  -0.4794   0.0000   0.2454
   0.000  -0.0000   0.00511   0.00072  -0.0000  0.4955  0.4955  -0.4130   0.0000   0.3996
   0.500   0.0561   0.00512   0.00073   0.0000  0.4484  0.5423  -0.4794   0.0000   0.2454
   1.000   0.1121   0.00517   0.00077   0.0000  0.4010  0.5889  -0.5587   0.0000   0.2453
   1.500   0.1680   0.00526   0.00083   0.0001  0.3533  0.6356  -0.6545   0.0000   0.2450
   2.000   0.2237   0.00537   0.00092   0.0001  0.3061  0.6822  -0.7697   0.0000   0.2447
   2.500   0.2792   0.00552   0.00104   0.0003  0.2595  0.7281  -0.9061   0.0000   0.2442
   3.000   0.3345   0.00570   0.00119   0.0004  0.2152  0.7726  -1.0647   0.0000   0.2437
   3.500   0.3894   0.00592   0.00137   0.0007  0.1741  0.8151  -1.2448   0.0000   0.2430
   4.000   0.4440   0.00618   0.00159   0.0010  0.1379  0.8536  -1.4483   0.0000   0.2422
   4.500   0.4984   0.00645   0.00183   0.0014  0.1083  0.8878  -1.6739   0.0000   0.2414
   5.000   0.5525   0.00674   0.00209   0.0019  0.0852  0.9169  -1.9217   0.0000   0.2405
   5.500   0.6059   0.00706   0.00238   0.0025  0.0677  0.9410  -2.1893   0.0000   0.2394
   6.000   0.6586   0.00739   0.00268   0.0033  0.0549  0.9606  -2.4789   0.0000   0.2382
   6.500   0.7112   0.00774   0.00299   0.0041  0.0453  0.9760  -2.7911   0.0000   0.2370
   7.000   0.7667   0.00812   0.00333   0.0042  0.0381  0.9867  -3.1310   0.0000   0.2368
   7.500   0.8262   0.00854   0.00371   0.0033  0.0324  0.9930  -3.5136   0.0000   0.2379
   8.000   0.8899   0.00900   0.00412   0.0015  0.0279  0.9955  -3.9310   0.0000   0.2398
   8.500   0.9538   0.00950   0.00459  -0.0005  0.0242  0.9971  -4.3794   0.0000   0.2415
   9.000   1.0170   0.01001   0.00507  -0.0024  0.0215  0.9987  -4.8541   0.0000   0.2427
   9.500   1.0779   0.01052   0.00557  -0.0038  0.0194  1.0000  -5.3390   0.0000   0.2433
  10.000   1.1209   0.01099   0.00606  -0.0013  0.0180  1.0000  -5.7734   0.0000   0.2403
  10.500   1.1647   0.01158   0.00664   0.0009  0.0165  1.0000  -6.2354   0.0000   0.2377
  11.000   1.2111   0.01209   0.00717   0.0026  0.0156  1.0000  -6.7269   0.0000   0.2357
  11.500   1.2573   0.01279   0.00787   0.0041  0.0142  1.0000  -7.2288   0.0000   0.2338
  12.000   1.3052   0.01338   0.00850   0.0052  0.0136  1.0000  -7.7577   0.0000   0.2323
  12.500   1.3516   0.01411   0.00924   0.0065  0.0128  1.0000  -8.2971   0.0000   0.2307
  13.000   1.3965   0.01495   0.01012   0.0080  0.0120  1.0000  -8.8583   0.0000   0.2291
  13.500   1.4415   0.01571   0.01092   0.0093  0.0116  1.0000  -9.4405   0.0000   0.2274
  14.000   1.4840   0.01659   0.01184   0.0110  0.0110  1.0000  -10.0229   0.0000   0.2257
  14.500   1.5218   0.01776   0.01307   0.0133  0.0102  1.0000  -10.5802   0.0000   0.2235
  15.000   1.5603   0.01872   0.01409   0.0154  0.0100  1.0000  -11.1641   0.0000   0.2215
  15.500   1.5909   0.01980   0.01524   0.0187  0.0097  1.0000  -11.7072   0.0000   0.2187
  16.000   1.6162   0.02112   0.01664   0.0223  0.0094  1.0000  -12.2227   0.0000   0.2156
  16.500   1.6378   0.02283   0.01843   0.0258  0.0091  1.0000  -12.7157   0.0000   0.2127
  17.000   1.6528   0.02519   0.02090   0.0289  0.0087  1.0000  -13.1576   0.0000   0.2099
  17.500   1.6645   0.02816   0.02400   0.0312  0.0084  1.0000  -13.5865   0.0000   0.2076
  18.000   1.6770   0.03146   0.02743   0.0324  0.0083  1.0000  -14.0327   0.0000   0.2059
  18.500   1.6837   0.03578   0.03188   0.0325  0.0082  1.0000  -14.4244   0.0000   0.2047
  19.000   1.6829   0.04141   0.03768   0.0314  0.0081  1.0000  -14.7420   0.0000   0.2041
  19.500   1.6721   0.04880   0.04524   0.0289  0.0079  1.0000  -14.9538   0.0000   0.2041
  20.000   1.6471   0.05862   0.05527   0.0247  0.0078  1.0000  -15.0076   0.0000   0.2050
  20.500   1.6024   0.07190   0.06879   0.0183  0.0078  1.0000  -14.8303   0.0000   0.2072
  21.000   1.5312   0.08999   0.08718   0.0090  0.0078  1.0000  -14.3187   0.0000   0.2113
  21.500   1.4307   0.11403   0.11158  -0.0044  0.0079  1.0000  -13.3755   0.0000   0.2188
  22.000   1.3198   0.14189   0.13981  -0.0222  0.0080  1.0000  -12.1049   0.0000   0.2314
  22.500   1.2365   0.16657   0.16478  -0.0400  0.0081  1.0000  -10.9654   0.0000   0.2460
  23.000   1.1917   0.18463   0.18302  -0.0538  0.0080  1.0000  -10.2440   0.0000   0.2579
  23.500   1.1681   0.19860   0.19712  -0.0649  0.0078  1.0000  -9.7839   0.0000   0.2674
  24.000   1.1535   0.21086   0.20947  -0.0749  0.0075  1.0000  -9.4182   0.0000   0.2758
  24.500   1.1458   0.22169   0.22035  -0.0839  0.0073  1.0000  -9.1366   0.0000   0.2831
  25.000   1.1454   0.23068   0.22939  -0.0916  0.0069  1.0000  -8.9783   0.0000   0.2888
  25.500   1.1426   0.24055   0.23935  -0.1001  0.0067  1.0000  -8.7094   0.0000   0.2955
  26.000   1.1359   0.25212   0.25101  -0.1097  0.0064  1.0000  -8.2313   0.0000   0.3037
  26.500   1.1228   0.26692   0.26591  -0.1212  0.0058  1.0000  -7.3828   0.0000   0.3149


