xflr5 v6.33

 Calculated polar for: NACA 0012-64

 1 1 Reynolds number fixed          Mach number fixed         

 xtrf =   1.000 (top)        1.000 (bottom)
 Mach =   0.000     Re =     4.600 e 6     Ncrit =   9.000

  alpha     CL        CD       CDp       Cm    Top Xtr Bot Xtr   Cpmin    Chinge    XCp    
 ------- -------- --------- --------- -------- ------- ------- -------- --------- ---------
 -27.500  -1.0395   0.29087   0.29002   0.1095  1.0000  0.0032  -6.8605   0.0000   0.3097
 -27.000  -1.0330   0.28218   0.28130   0.1027  1.0000  0.0035  -7.1348   0.0000   0.3048
 -26.500  -1.0286   0.27276   0.27184   0.0956  1.0000  0.0038  -7.4527   0.0000   0.2991
 -26.000  -1.0195   0.26566   0.26470   0.0896  1.0000  0.0040  -7.4877   0.0000   0.2952
 -25.500  -1.0120   0.25787   0.25690   0.0833  1.0000  0.0045  -7.5704   0.0000   0.2907
 -25.000  -1.0032   0.25072   0.24973   0.0773  1.0000  0.0048  -7.5666   0.0000   0.2868
 -24.500  -1.0005   0.24132   0.24029   0.0703  1.0000  0.0051  -7.7639   0.0000   0.2808
 -24.000  -0.9928   0.23379   0.23275   0.0643  1.0000  0.0054  -7.7563   0.0000   0.2766
 -23.500  -0.9999   0.22170   0.22061   0.0557  1.0000  0.0059  -8.1541   0.0000   0.2682
 -23.000  -1.0255   0.20454   0.20335   0.0439  1.0000  0.0063  -8.9364   0.0000   0.2559
 -22.500  -1.4431   0.10870   0.10641  -0.0169  1.0000  0.0054  -16.1420   0.0000   0.2009
 -22.000  -1.5592   0.08198   0.07926  -0.0316  1.0000  0.0052  -17.4178   0.0000   0.1940
 -21.500  -1.6194   0.06587   0.06287  -0.0398  1.0000  0.0052  -17.8337   0.0000   0.1914
 -21.000  -1.6550   0.05467   0.05144  -0.0444  1.0000  0.0053  -17.8857   0.0000   0.1907
 -20.500  -1.6754   0.04642   0.04301  -0.0465  1.0000  0.0055  -17.7263   0.0000   0.1912
 -20.000  -1.6852   0.04020   0.03663  -0.0470  1.0000  0.0058  -17.4250   0.0000   0.1925
 -19.500  -1.6867   0.03542   0.03171  -0.0462  1.0000  0.0060  -17.0236   0.0000   0.1943
 -19.000  -1.6812   0.03168   0.02784  -0.0446  1.0000  0.0062  -16.5435   0.0000   0.1964
 -18.500  -1.6697   0.02868   0.02472  -0.0425  1.0000  0.0064  -16.0044   0.0000   0.1987
 -18.000  -1.6531   0.02625   0.02219  -0.0402  1.0000  0.0065  -15.4295   0.0000   0.2010
 -17.500  -1.6378   0.02389   0.01972  -0.0371  1.0000  0.0070  -14.8875   0.0000   0.2037
 -17.000  -1.6192   0.02187   0.01763  -0.0338  1.0000  0.0075  -14.3197   0.0000   0.2066
 -16.500  -1.5952   0.02030   0.01598  -0.0307  1.0000  0.0079  -13.7105   0.0000   0.2092
 -15.500  -1.5409   0.01767   0.01321  -0.0241  1.0000  0.0091  -12.4997   0.0000   0.2148
 -15.000  -1.5101   0.01662   0.01211  -0.0208  1.0000  0.0098  -11.8914   0.0000   0.2176
 -14.500  -1.4792   0.01569   0.01113  -0.0172  1.0000  0.0107  -11.2947   0.0000   0.2206
 -14.000  -1.4503   0.01485   0.01026  -0.0129  1.0000  0.0118  -10.7222   0.0000   0.2242
 -13.500  -1.4223   0.01415   0.00954  -0.0081  1.0000  0.0131  -10.1671   0.0000   0.2283
 -13.000  -1.3833   0.01349   0.00886  -0.0055  0.9995  0.0144  -9.5527   0.0000   0.2308
 -12.500  -1.3292   0.01279   0.00815  -0.0062  0.9982  0.0158  -8.8617   0.0000   0.2309
 -12.000  -1.2732   0.01216   0.00753  -0.0072  0.9970  0.0171  -8.1798   0.0000   0.2307
 -11.500  -1.2152   0.01165   0.00701  -0.0084  0.9960  0.0176  -7.5088   0.0000   0.2302
 -10.500  -1.1025   0.01059   0.00597  -0.0101  0.9915  0.0203  -6.2595   0.0000   0.2294
 -10.000  -1.0467   0.01021   0.00559  -0.0107  0.9876  0.0208  -5.6788   0.0000   0.2290
  -9.500  -0.9983   0.00974   0.00510  -0.0095  0.9800  0.0218  -5.2045   0.0000   0.2303
  -9.000  -0.9491   0.00933   0.00468  -0.0084  0.9723  0.0230  -4.7557   0.0000   0.2316
  -8.500  -0.8982   0.00899   0.00434  -0.0077  0.9647  0.0239  -4.3151   0.0000   0.2325
  -8.000  -0.8465   0.00869   0.00402  -0.0071  0.9563  0.0245  -3.9007   0.0000   0.2332
  -7.000  -0.7420   0.00800   0.00330  -0.0060  0.9380  0.0268  -3.2059   0.0000   0.2344
  -6.500  -0.6886   0.00770   0.00299  -0.0057  0.9282  0.0278  -2.9235   0.0000   0.2346
  -6.000  -0.6347   0.00745   0.00272  -0.0055  0.9179  0.0287  -2.6481   0.0000   0.2347
  -5.500  -0.5803   0.00722   0.00246  -0.0053  0.9063  0.0293  -2.3811   0.0000   0.2345
  -5.000  -0.5262   0.00695   0.00219  -0.0051  0.8934  0.0322  -2.1276   0.0000   0.2344
  -4.500  -0.4716   0.00672   0.00196  -0.0050  0.8806  0.0361  -1.8795   0.0000   0.2338
  -4.000  -0.4178   0.00640   0.00171  -0.0047  0.8667  0.0530  -1.6442   0.0000   0.2334
  -3.500  -0.3635   0.00614   0.00151  -0.0045  0.8517  0.0739  -1.4304   0.0000   0.2325
  -3.000  -0.3089   0.00592   0.00135  -0.0043  0.8358  0.0945  -1.2237   0.0000   0.2310
  -2.500  -0.2551   0.00562   0.00117  -0.0041  0.8171  0.1361  -1.0374   0.0000   0.2293
  -2.000  -0.2018   0.00539   0.00103  -0.0037  0.7874  0.1845  -0.8623   0.0000   0.2272
  -1.500  -0.1497   0.00511   0.00090  -0.0030  0.7507  0.2579  -0.6965   0.0000   0.2251
  -1.000  -0.1003   0.00462   0.00074  -0.0020  0.7140  0.3937  -0.5423   0.0000   0.2258
  -0.500  -0.0498   0.00432   0.00065  -0.0011  0.6693  0.5014  -0.4234   0.0000   0.2241
   0.000  -0.0000   0.00438   0.00064   0.0000  0.5736  0.5736  -0.3385   0.0000   0.3436
   0.500   0.0498   0.00432   0.00065   0.0011  0.5014  0.6693  -0.4234   0.0000   0.2241
   1.000   0.1003   0.00462   0.00074   0.0020  0.3937  0.7140  -0.5423   0.0000   0.2258
   1.500   0.1497   0.00511   0.00090   0.0030  0.2580  0.7507  -0.6965   0.0000   0.2251
   2.000   0.2018   0.00539   0.00103   0.0036  0.1845  0.7874  -0.8623   0.0000   0.2272
   2.500   0.2551   0.00562   0.00117   0.0041  0.1361  0.8171  -1.0374   0.0000   0.2293
   3.000   0.3089   0.00592   0.00135   0.0043  0.0945  0.8358  -1.2237   0.0000   0.2310
   3.500   0.3636   0.00614   0.00151   0.0045  0.0738  0.8517  -1.4304   0.0000   0.2325
   4.000   0.4179   0.00640   0.00171   0.0047  0.0529  0.8667  -1.6443   0.0000   0.2334
   4.500   0.4716   0.00672   0.00196   0.0050  0.0361  0.8806  -1.8796   0.0000   0.2338
   5.000   0.5263   0.00695   0.00219   0.0051  0.0322  0.8934  -2.1277   0.0000   0.2344
   5.500   0.5804   0.00722   0.00246   0.0053  0.0293  0.9063  -2.3812   0.0000   0.2346
   6.000   0.6347   0.00745   0.00272   0.0055  0.0287  0.9179  -2.6483   0.0000   0.2347
   6.500   0.6887   0.00770   0.00299   0.0057  0.0278  0.9282  -2.9238   0.0000   0.2347
   7.000   0.7421   0.00800   0.00330   0.0060  0.0268  0.9380  -3.2062   0.0000   0.2344
   7.500   0.7943   0.00840   0.00371   0.0065  0.0249  0.9471  -3.5258   0.0000   0.2338
   8.000   0.8467   0.00869   0.00402   0.0070  0.0245  0.9563  -3.9012   0.0000   0.2332
   8.500   0.8984   0.00899   0.00434   0.0076  0.0239  0.9647  -4.3157   0.0000   0.2325
   9.000   0.9493   0.00933   0.00469   0.0084  0.0230  0.9723  -4.7564   0.0000   0.2316
   9.500   0.9985   0.00974   0.00510   0.0094  0.0218  0.9800  -5.2053   0.0000   0.2304
  10.000   1.0469   0.01021   0.00559   0.0106  0.0208  0.9875  -5.6797   0.0000   0.2291
  10.500   1.1027   0.01059   0.00597   0.0101  0.0203  0.9915  -6.2605   0.0000   0.2294
  11.000   1.1575   0.01104   0.00641   0.0097  0.0193  0.9951  -6.8668   0.0000   0.2295
  11.500   1.2155   0.01165   0.00701   0.0084  0.0176  0.9960  -7.5101   0.0000   0.2302
  12.000   1.2734   0.01216   0.00753   0.0071  0.0171  0.9970  -8.1812   0.0000   0.2308
  12.500   1.3295   0.01279   0.00815   0.0061  0.0157  0.9983  -8.8634   0.0000   0.2310
  13.000   1.3836   0.01349   0.00886   0.0055  0.0144  0.9995  -9.5546   0.0000   0.2308
  13.500   1.4222   0.01415   0.00953   0.0081  0.0131  1.0000  -10.1667   0.0000   0.2282
  14.000   1.4505   0.01485   0.01026   0.0128  0.0118  1.0000  -10.7239   0.0000   0.2243
  14.500   1.4798   0.01570   0.01113   0.0171  0.0107  1.0000  -11.2989   0.0000   0.2207
  15.000   1.5109   0.01662   0.01211   0.0206  0.0098  1.0000  -11.8967   0.0000   0.2177
  15.500   1.5417   0.01767   0.01321   0.0239  0.0091  1.0000  -12.5056   0.0000   0.2149
  16.000   1.5683   0.01902   0.01462   0.0274  0.0082  1.0000  -13.0893   0.0000   0.2120
  16.500   1.5963   0.02030   0.01597   0.0305  0.0079  1.0000  -13.7191   0.0000   0.2094
  17.000   1.6205   0.02187   0.01762   0.0336  0.0075  1.0000  -14.3295   0.0000   0.2067
  17.500   1.6391   0.02388   0.01972   0.0369  0.0069  1.0000  -14.8983   0.0000   0.2039
  18.000   1.6548   0.02623   0.02217   0.0399  0.0065  1.0000  -15.4433   0.0000   0.2012
  18.500   1.6714   0.02865   0.02469   0.0423  0.0064  1.0000  -16.0202   0.0000   0.1989
  19.000   1.6831   0.03164   0.02779   0.0443  0.0062  1.0000  -16.5613   0.0000   0.1966
  19.500   1.6889   0.03537   0.03165   0.0459  0.0060  1.0000  -17.0434   0.0000   0.1946
  20.000   1.6875   0.04014   0.03656   0.0467  0.0058  1.0000  -17.4470   0.0000   0.1928
  20.500   1.6779   0.04635   0.04293   0.0462  0.0055  1.0000  -17.7502   0.0000   0.1915
  21.000   1.6576   0.05458   0.05135   0.0440  0.0053  1.0000  -17.9109   0.0000   0.1910
  21.500   1.6223   0.06577   0.06277   0.0394  0.0052  1.0000  -17.8611   0.0000   0.1916
  22.000   1.5621   0.08187   0.07915   0.0312  0.0051  1.0000  -17.4465   0.0000   0.1943
  22.500   1.4461   0.10864   0.10634   0.0165  0.0054  1.0000  -16.1702   0.0000   0.2012
  23.000   1.0270   0.20505   0.20386  -0.0444  0.0063  1.0000  -8.9413   0.0000   0.2563
  23.500   1.0014   0.22226   0.22117  -0.0562  0.0059  1.0000  -8.1590   0.0000   0.2686
  24.000   0.9946   0.23452   0.23347  -0.0648  0.0054  1.0000  -7.7629   0.0000   0.2769
  24.500   1.0022   0.24212   0.24109  -0.0708  0.0051  1.0000  -7.7701   0.0000   0.2812
  25.000   1.0050   0.25164   0.25066  -0.0778  0.0048  1.0000  -7.5742   0.0000   0.2871
  25.500   1.0139   0.25893   0.25796  -0.0838  0.0045  1.0000  -7.5772   0.0000   0.2911
  26.000   1.0216   0.26678   0.26582  -0.0901  0.0040  1.0000  -7.4993   0.0000   0.2955
  26.500   1.0306   0.27409   0.27316  -0.0961  0.0038  1.0000  -7.4582   0.0000   0.2994
  27.000   1.0351   0.28366   0.28278  -0.1033  0.0035  1.0000  -7.1424   0.0000   0.3051
  27.500   1.0418   0.29251   0.29166  -0.1101  0.0032  1.0000  -6.8704   0.0000   0.3100


