xflr5 v6.33

 Calculated polar for: NACA 0012-64

 1 1 Reynolds number fixed          Mach number fixed         

 xtrf =   1.000 (top)        1.000 (bottom)
 Mach =   0.000     Re =     4.000 e 6     Ncrit =   9.000

  alpha     CL        CD       CDp       Cm    Top Xtr Bot Xtr   Cpmin    Chinge    XCp    
 ------- -------- --------- --------- -------- ------- ------- -------- --------- ---------
 -26.000  -1.0157   0.26712   0.26614   0.0903  1.0000  0.0043  -7.3066   0.0000   0.2965
 -25.500  -1.0089   0.25903   0.25803   0.0839  1.0000  0.0046  -7.4274   0.0000   0.2918
 -25.000  -1.0012   0.25133   0.25031   0.0777  1.0000  0.0049  -7.4835   0.0000   0.2873
 -24.500  -0.9983   0.24196   0.24088   0.0706  1.0000  0.0052  -7.6832   0.0000   0.2814
 -24.000  -0.9912   0.23425   0.23317   0.0646  1.0000  0.0057  -7.6978   0.0000   0.2769
 -23.500  -0.9949   0.22316   0.22203   0.0566  1.0000  0.0062  -8.0064   0.0000   0.2695
 -23.000  -1.0064   0.20996   0.20876   0.0473  1.0000  0.0065  -8.4561   0.0000   0.2604
 -22.500  -1.0747   0.18275   0.18134   0.0292  1.0000  0.0068  -10.0405   0.0000   0.2407
 -22.000  -1.5214   0.08810   0.08548  -0.0283  1.0000  0.0057  -16.9092   0.0000   0.1956
 -21.500  -1.5928   0.06976   0.06681  -0.0379  1.0000  0.0057  -17.4942   0.0000   0.1920
 -21.000  -1.6312   0.05776   0.05457  -0.0433  1.0000  0.0058  -17.5942   0.0000   0.1909
 -20.500  -1.6525   0.04909   0.04571  -0.0461  1.0000  0.0059  -17.4535   0.0000   0.1910
 -20.000  -1.6625   0.04257   0.03903  -0.0470  1.0000  0.0061  -17.1646   0.0000   0.1920
 -19.500  -1.6645   0.03753   0.03383  -0.0467  1.0000  0.0063  -16.7758   0.0000   0.1936
 -19.000  -1.6594   0.03356   0.02973  -0.0455  1.0000  0.0064  -16.3080   0.0000   0.1955
 -18.500  -1.6486   0.03037   0.02642  -0.0438  1.0000  0.0065  -15.7825   0.0000   0.1976
 -18.000  -1.6407   0.02718   0.02310  -0.0411  1.0000  0.0070  -15.3078   0.0000   0.2002
 -17.500  -1.6267   0.02467   0.02049  -0.0382  1.0000  0.0075  -14.7783   0.0000   0.2029
 -17.000  -1.6068   0.02270   0.01843  -0.0352  1.0000  0.0078  -14.2005   0.0000   0.2056
 -16.500  -1.5821   0.02114   0.01678  -0.0322  1.0000  0.0081  -13.5887   0.0000   0.2081
 -16.000  -1.5589   0.01952   0.01508  -0.0287  1.0000  0.0089  -13.0068   0.0000   0.2110
 -15.500  -1.5313   0.01822   0.01372  -0.0254  1.0000  0.0096  -12.4155   0.0000   0.2138
 -15.000  -1.5003   0.01718   0.01261  -0.0223  1.0000  0.0102  -11.8080   0.0000   0.2165
 -14.500  -1.4710   0.01609   0.01149  -0.0185  1.0000  0.0114  -11.2272   0.0000   0.2196
 -13.500  -1.4122   0.01454   0.00987  -0.0100  1.0000  0.0139  -10.0907   0.0000   0.2269
 -13.000  -1.3851   0.01401   0.00931  -0.0048  1.0000  0.0147  -9.5526   0.0000   0.2313
 -12.500  -1.3315   0.01325   0.00854  -0.0054  0.9988  0.0163  -8.8657   0.0000   0.2315
 -12.000  -1.2752   0.01265   0.00794  -0.0064  0.9975  0.0174  -8.1816   0.0000   0.2313
 -11.500  -1.2181   0.01203   0.00731  -0.0076  0.9963  0.0184  -7.5180   0.0000   0.2309
 -11.000  -1.1596   0.01148   0.00677  -0.0090  0.9954  0.0198  -6.8693   0.0000   0.2301
 -10.500  -1.1019   0.01105   0.00635  -0.0101  0.9934  0.0206  -6.2468   0.0000   0.2294
 -10.000  -1.0454   0.01060   0.00589  -0.0108  0.9900  0.0212  -5.6670   0.0000   0.2289
  -9.500  -0.9923   0.01004   0.00532  -0.0108  0.9851  0.0226  -5.1742   0.0000   0.2290
  -9.000  -0.9422   0.00965   0.00493  -0.0099  0.9780  0.0235  -4.7219   0.0000   0.2299
  -8.500  -0.8924   0.00932   0.00458  -0.0089  0.9702  0.0243  -4.2863   0.0000   0.2310
  -8.000  -0.8410   0.00901   0.00426  -0.0082  0.9620  0.0247  -3.8757   0.0000   0.2317
  -7.500  -0.7904   0.00858   0.00380  -0.0074  0.9532  0.0261  -3.5122   0.0000   0.2326
  -7.000  -0.7383   0.00823   0.00345  -0.0068  0.9443  0.0275  -3.1887   0.0000   0.2332
  -6.500  -0.6854   0.00794   0.00313  -0.0064  0.9343  0.0283  -2.9087   0.0000   0.2336
  -6.000  -0.6316   0.00767   0.00284  -0.0062  0.9243  0.0290  -2.6346   0.0000   0.2336
  -5.500  -0.5778   0.00738   0.00253  -0.0059  0.9136  0.0308  -2.3744   0.0000   0.2335
  -5.000  -0.5238   0.00711   0.00227  -0.0056  0.9012  0.0332  -2.1193   0.0000   0.2333
  -4.500  -0.4695   0.00686   0.00202  -0.0054  0.8885  0.0384  -1.8734   0.0000   0.2328
  -4.000  -0.4163   0.00651   0.00176  -0.0050  0.8751  0.0602  -1.6406   0.0000   0.2325
  -3.500  -0.3620   0.00625   0.00156  -0.0048  0.8607  0.0791  -1.4269   0.0000   0.2315
  -3.000  -0.3076   0.00601   0.00138  -0.0047  0.8459  0.1030  -1.2209   0.0000   0.2299
  -2.500  -0.2540   0.00569   0.00121  -0.0043  0.8290  0.1503  -1.0353   0.0000   0.2281
  -2.000  -0.2008   0.00542   0.00106  -0.0039  0.8035  0.2021  -0.8605   0.0000   0.2258
  -1.500  -0.1502   0.00503   0.00089  -0.0030  0.7689  0.3016  -0.6973   0.0000   0.2252
  -1.000  -0.1011   0.00450   0.00073  -0.0019  0.7349  0.4411  -0.5435   0.0000   0.2268
  -0.500  -0.0503   0.00421   0.00064  -0.0010  0.6940  0.5422  -0.4239   0.0000   0.2255
   0.000  -0.0000   0.00422   0.00062   0.0000  0.6141  0.6141  -0.3386   0.0000   0.7439
   0.500   0.0503   0.00421   0.00064   0.0010  0.5422  0.6940  -0.4239   0.0000   0.2255
   1.000   0.1011   0.00450   0.00073   0.0019  0.4411  0.7349  -0.5435   0.0000   0.2269
   1.500   0.1502   0.00503   0.00089   0.0030  0.3016  0.7689  -0.6973   0.0000   0.2252
   2.000   0.2008   0.00543   0.00106   0.0039  0.2021  0.8035  -0.8605   0.0000   0.2258
   2.500   0.2540   0.00569   0.00121   0.0043  0.1503  0.8290  -1.0353   0.0000   0.2281
   3.500   0.3620   0.00625   0.00156   0.0048  0.0791  0.8607  -1.4270   0.0000   0.2315
   4.000   0.4163   0.00651   0.00176   0.0050  0.0602  0.8750  -1.6407   0.0000   0.2325
   4.500   0.4696   0.00686   0.00202   0.0054  0.0384  0.8885  -1.8735   0.0000   0.2328
   5.000   0.5238   0.00711   0.00227   0.0056  0.0332  0.9011  -2.1194   0.0000   0.2333
   5.500   0.5779   0.00738   0.00253   0.0059  0.0308  0.9136  -2.3745   0.0000   0.2336
   6.000   0.6316   0.00767   0.00284   0.0061  0.0290  0.9243  -2.6348   0.0000   0.2336
   6.500   0.6855   0.00794   0.00313   0.0064  0.0283  0.9344  -2.9089   0.0000   0.2336
   7.000   0.7384   0.00823   0.00345   0.0068  0.0275  0.9443  -3.1890   0.0000   0.2333
   7.500   0.7905   0.00858   0.00380   0.0074  0.0261  0.9532  -3.5126   0.0000   0.2327
   8.000   0.8412   0.00901   0.00426   0.0082  0.0247  0.9620  -3.8762   0.0000   0.2318
   8.500   0.8925   0.00932   0.00458   0.0089  0.0243  0.9701  -4.2869   0.0000   0.2310
   9.000   0.9424   0.00965   0.00493   0.0099  0.0235  0.9780  -4.7226   0.0000   0.2300
   9.500   0.9925   0.01004   0.00532   0.0107  0.0226  0.9851  -5.1750   0.0000   0.2290
  10.000   1.0456   0.01060   0.00589   0.0108  0.0212  0.9900  -5.6678   0.0000   0.2289
  10.500   1.1020   0.01105   0.00635   0.0100  0.0206  0.9934  -6.2477   0.0000   0.2295
  11.000   1.1598   0.01148   0.00677   0.0089  0.0198  0.9954  -6.8704   0.0000   0.2302
  11.500   1.2183   0.01203   0.00731   0.0075  0.0184  0.9963  -7.5193   0.0000   0.2309
  12.000   1.2755   0.01265   0.00794   0.0064  0.0174  0.9975  -8.1831   0.0000   0.2314
  12.500   1.3318   0.01325   0.00854   0.0053  0.0163  0.9988  -8.8674   0.0000   0.2316
  13.000   1.3854   0.01401   0.00931   0.0047  0.0147  1.0000  -9.5545   0.0000   0.2314
  13.500   1.4123   0.01453   0.00987   0.0100  0.0139  1.0000  -10.0910   0.0000   0.2269
  14.000   1.4414   0.01530   0.01064   0.0144  0.0123  1.0000  -10.6518   0.0000   0.2231
  14.500   1.4716   0.01610   0.01149   0.0184  0.0114  1.0000  -11.2316   0.0000   0.2197
  15.000   1.5010   0.01718   0.01261   0.0221  0.0102  1.0000  -11.8131   0.0000   0.2166
  15.500   1.5322   0.01822   0.01372   0.0252  0.0096  1.0000  -12.4216   0.0000   0.2140
  16.000   1.5599   0.01952   0.01508   0.0285  0.0089  1.0000  -13.0138   0.0000   0.2112
  16.500   1.5832   0.02113   0.01677   0.0320  0.0081  1.0000  -13.5977   0.0000   0.2083
  17.000   1.6081   0.02269   0.01842   0.0349  0.0078  1.0000  -14.2106   0.0000   0.2057
  17.500   1.6281   0.02466   0.02047   0.0379  0.0074  1.0000  -14.7897   0.0000   0.2031
  18.000   1.6422   0.02717   0.02309   0.0409  0.0070  1.0000  -15.3203   0.0000   0.2004
  18.500   1.6505   0.03033   0.02638   0.0435  0.0065  1.0000  -15.7990   0.0000   0.1978
  19.000   1.6615   0.03351   0.02968   0.0452  0.0064  1.0000  -16.3267   0.0000   0.1957
  19.500   1.6668   0.03746   0.03377   0.0464  0.0063  1.0000  -16.7968   0.0000   0.1938
  20.000   1.6650   0.04249   0.03895   0.0467  0.0061  1.0000  -17.1876   0.0000   0.1923
  20.500   1.6552   0.04899   0.04561   0.0458  0.0059  1.0000  -17.4797   0.0000   0.1913
  21.000   1.6342   0.05764   0.05445   0.0430  0.0058  1.0000  -17.6230   0.0000   0.1911
  21.500   1.5960   0.06961   0.06666   0.0376  0.0057  1.0000  -17.5263   0.0000   0.1923
  22.000   1.5249   0.08792   0.08529   0.0279  0.0057  1.0000  -16.9450   0.0000   0.1959
  22.500   1.0753   0.18337   0.18197  -0.0298  0.0068  1.0000  -10.0265   0.0000   0.2413
  23.000   1.0077   0.21054   0.20933  -0.0479  0.0065  1.0000  -8.4528   0.0000   0.2609
  23.500   0.9965   0.22376   0.22264  -0.0570  0.0061  1.0000  -8.0122   0.0000   0.2699
  24.000   0.9929   0.23498   0.23390  -0.0650  0.0057  1.0000  -7.7043   0.0000   0.2773
  24.500   1.0001   0.24272   0.24164  -0.0711  0.0052  1.0000  -7.6937   0.0000   0.2818
  25.000   1.0030   0.25225   0.25122  -0.0782  0.0049  1.0000  -7.4898   0.0000   0.2877
  25.500   1.0107   0.26013   0.25913  -0.0844  0.0046  1.0000  -7.4328   0.0000   0.2921
  26.000   1.0177   0.26830   0.26732  -0.0908  0.0042  1.0000  -7.3162   0.0000   0.2968
  26.500   1.0281   0.27506   0.27410  -0.0966  0.0039  1.0000  -7.3200   0.0000   0.3003


