xflr5 v6.33

 Calculated polar for: NACA 0012 v1

 1 1 Reynolds number fixed          Mach number fixed         

 xtrf =   1.000 (top)        1.000 (bottom)
 Mach =   0.000     Re =     1.100 e 6     Ncrit =   9.000

  alpha     CL        CD       CDp       Cm    Top Xtr Bot Xtr   Cpmin    Chinge    XCp    
 ------- -------- --------- --------- -------- ------- ------- -------- --------- ---------
 -24.000  -0.9866   0.27545   0.27376   0.1111  1.0000  0.0086  -2.5710   0.0000   0.3312
 -23.500  -0.9703   0.27149   0.26979   0.1070  1.0000  0.0087  -2.4147   0.0000   0.3301
 -23.000  -0.9540   0.26682   0.26512   0.1026  1.0000  0.0091  -2.3191   0.0000   0.3285
 -21.500  -1.1222   0.17280   0.17058   0.0450  1.0000  0.0121  -8.8666   0.0000   0.2562
 -21.000  -1.1442   0.15948   0.15708   0.0353  1.0000  0.0123  -9.2061   0.0000   0.2479
 -20.500  -1.1581   0.14844   0.14594   0.0277  1.0000  0.0125  -9.3450   0.0000   0.2420
 -20.000  -1.1776   0.13636   0.13373   0.0198  1.0000  0.0127  -9.5176   0.0000   0.2360
 -19.500  -1.2040   0.12320   0.12042   0.0118  1.0000  0.0129  -9.7303   0.0000   0.2300
 -19.000  -1.2386   0.10897   0.10600   0.0037  1.0000  0.0130  -9.9884   0.0000   0.2243
 -18.500  -1.2806   0.09392   0.09072  -0.0043  1.0000  0.0130  -10.2759   0.0000   0.2190
 -18.000  -1.3253   0.07901   0.07557  -0.0120  1.0000  0.0131  -10.5400   0.0000   0.2146
 -17.500  -1.3638   0.06562   0.06193  -0.0187  1.0000  0.0132  -10.7053   0.0000   0.2111
 -17.000  -1.3899   0.05460   0.05065  -0.0242  1.0000  0.0134  -10.7271   0.0000   0.2087
 -16.500  -1.4029   0.04597   0.04179  -0.0281  1.0000  0.0136  -10.6138   0.0000   0.2073
 -16.000  -1.4051   0.03945   0.03503  -0.0304  1.0000  0.0139  -10.3960   0.0000   0.2069
 -15.500  -1.3989   0.03458   0.02994  -0.0310  1.0000  0.0142  -10.1023   0.0000   0.2074
 -15.000  -1.4035   0.02952   0.02470  -0.0298  1.0000  0.0147  -9.8811   0.0000   0.2094
 -14.500  -1.3903   0.02665   0.02169  -0.0274  1.0000  0.0152  -9.5145   0.0000   0.2119
 -14.000  -1.3709   0.02454   0.01944  -0.0244  1.0000  0.0157  -9.1098   0.0000   0.2148
 -13.500  -1.3472   0.02289   0.01764  -0.0209  1.0000  0.0163  -8.6838   0.0000   0.2179
 -13.000  -1.3262   0.02108   0.01571  -0.0166  1.0000  0.0171  -8.2836   0.0000   0.2217
 -12.500  -1.2904   0.01984   0.01439  -0.0143  1.0000  0.0180  -7.7962   0.0000   0.2240
 -12.000  -1.2515   0.01870   0.01312  -0.0122  1.0000  0.0190  -7.3303   0.0000   0.2261
 -11.500  -1.2129   0.01744   0.01181  -0.0100  1.0000  0.0202  -6.8776   0.0000   0.2284
 -11.000  -1.1696   0.01652   0.01078  -0.0083  1.0000  0.0215  -6.4139   0.0000   0.2302
 -10.500  -1.1273   0.01550   0.00973  -0.0064  1.0000  0.0232  -5.9641   0.0000   0.2323
 -10.000  -1.0838   0.01460   0.00878  -0.0045  1.0000  0.0251  -5.5237   0.0000   0.2345
  -9.500  -1.0401   0.01385   0.00798  -0.0025  1.0000  0.0273  -5.1094   0.0000   0.2369
  -9.000  -0.9968   0.01318   0.00727  -0.0003  1.0000  0.0300  -4.7125   0.0000   0.2396
  -8.500  -0.9547   0.01249   0.00657   0.0021  1.0000  0.0332  -4.3327   0.0000   0.2428
  -8.000  -0.9131   0.01184   0.00593   0.0048  1.0000  0.0373  -3.9721   0.0000   0.2463
  -7.500  -0.8713   0.01128   0.00538   0.0074  1.0000  0.0425  -3.6340   0.0000   0.2501
  -7.000  -0.8231   0.01073   0.00486   0.0087  0.9994  0.0498  -3.2856   0.0000   0.2526
  -6.500  -0.7546   0.01013   0.00432   0.0056  0.9966  0.0619  -2.9017   0.0000   0.2500
  -6.000  -0.6859   0.00952   0.00383   0.0025  0.9933  0.0801  -2.5401   0.0000   0.2466
  -5.500  -0.6172   0.00891   0.00337  -0.0006  0.9896  0.1072  -2.2100   0.0000   0.2424
  -5.000  -0.5484   0.00828   0.00293  -0.0037  0.9853  0.1451  -1.9073   0.0000   0.2369
  -4.500  -0.4847   0.00768   0.00255  -0.0055  0.9771  0.1919  -1.6425   0.0000   0.2325
  -4.000  -0.4268   0.00714   0.00223  -0.0060  0.9641  0.2437  -1.4139   0.0000   0.2301
  -3.500  -0.3737   0.00668   0.00195  -0.0053  0.9451  0.2974  -1.2182   0.0000   0.2303
  -3.000  -0.3214   0.00630   0.00172  -0.0043  0.9207  0.3516  -1.0449   0.0000   0.2314
  -2.500  -0.2688   0.00598   0.00152  -0.0034  0.8914  0.4063  -0.8929   0.0000   0.2324
  -2.000  -0.2155   0.00574   0.00137  -0.0026  0.8562  0.4609  -0.7609   0.0000   0.2331
  -1.000  -0.1080   0.00544   0.00115  -0.0012  0.7711  0.5685  -0.5561   0.0000   0.2341
  -0.500  -0.0541   0.00538   0.00110  -0.0006  0.7231  0.6212  -0.4787   0.0000   0.2345
   0.000  -0.0000   0.00536   0.00109  -0.0000  0.6729  0.6729  -0.4136   0.0000   0.4656
   0.500   0.0541   0.00538   0.00110   0.0006  0.6212  0.7231  -0.4787   0.0000   0.2345
   1.000   0.1080   0.00544   0.00115   0.0012  0.5685  0.7711  -0.5561   0.0000   0.2341
   2.000   0.2155   0.00574   0.00137   0.0026  0.4610  0.8562  -0.7609   0.0000   0.2331
   2.500   0.2688   0.00598   0.00152   0.0034  0.4063  0.8914  -0.8929   0.0000   0.2324
   3.000   0.3215   0.00630   0.00172   0.0043  0.3516  0.9207  -1.0449   0.0000   0.2314
   3.500   0.3737   0.00668   0.00195   0.0053  0.2974  0.9451  -1.2182   0.0000   0.2303
   4.000   0.4268   0.00714   0.00223   0.0061  0.2437  0.9641  -1.4139   0.0000   0.2301
   4.500   0.4847   0.00768   0.00255   0.0056  0.1919  0.9771  -1.6425   0.0000   0.2325
   5.000   0.5484   0.00828   0.00293   0.0038  0.1451  0.9853  -1.9073   0.0000   0.2369
   5.500   0.6172   0.00891   0.00337   0.0007  0.1072  0.9896  -2.2101   0.0000   0.2424
   6.000   0.6859   0.00952   0.00383  -0.0023  0.0801  0.9934  -2.5402   0.0000   0.2466
   6.500   0.7546   0.01013   0.00432  -0.0054  0.0619  0.9966  -2.9018   0.0000   0.2500
   7.000   0.8232   0.01073   0.00486  -0.0084  0.0498  0.9994  -3.2857   0.0000   0.2527
   7.500   0.8713   0.01128   0.00538  -0.0071  0.0426  1.0000  -3.6337   0.0000   0.2501
   8.000   0.9130   0.01184   0.00593  -0.0045  0.0373  1.0000  -3.9718   0.0000   0.2463
   8.500   0.9546   0.01249   0.00657  -0.0018  0.0332  1.0000  -4.3325   0.0000   0.2428
   9.000   0.9968   0.01318   0.00727   0.0007  0.0300  1.0000  -4.7124   0.0000   0.2396
   9.500   1.0400   0.01385   0.00798   0.0030  0.0273  1.0000  -5.1093   0.0000   0.2369
  10.000   1.0839   0.01460   0.00878   0.0050  0.0251  1.0000  -5.5238   0.0000   0.2345
  10.500   1.1273   0.01550   0.00973   0.0069  0.0232  1.0000  -5.9644   0.0000   0.2323
  11.000   1.1697   0.01652   0.01079   0.0088  0.0215  1.0000  -6.4144   0.0000   0.2303
  11.500   1.2130   0.01744   0.01181   0.0106  0.0202  1.0000  -6.8783   0.0000   0.2284
  12.000   1.2517   0.01870   0.01312   0.0128  0.0190  1.0000  -7.3311   0.0000   0.2262
  12.500   1.2906   0.01984   0.01439   0.0149  0.0180  1.0000  -7.7974   0.0000   0.2241
  13.000   1.3265   0.02108   0.01571   0.0173  0.0171  1.0000  -8.2852   0.0000   0.2218
  13.500   1.3477   0.02289   0.01764   0.0216  0.0163  1.0000  -8.6864   0.0000   0.2180
  14.000   1.3715   0.02453   0.01944   0.0251  0.0157  1.0000  -9.1130   0.0000   0.2149
  14.500   1.3909   0.02665   0.02169   0.0282  0.0152  1.0000  -9.5184   0.0000   0.2120
  15.000   1.4042   0.02952   0.02470   0.0306  0.0147  1.0000  -9.8855   0.0000   0.2095
  15.500   1.3995   0.03460   0.02996   0.0318  0.0142  1.0000  -10.1053   0.0000   0.2075
  16.000   1.4063   0.03941   0.03499   0.0311  0.0139  1.0000  -10.4034   0.0000   0.2070
  16.500   1.4042   0.04593   0.04175   0.0289  0.0136  1.0000  -10.6225   0.0000   0.2074
  17.000   1.3914   0.05454   0.05060   0.0250  0.0133  1.0000  -10.7373   0.0000   0.2088
  17.500   1.3654   0.06556   0.06186   0.0195  0.0132  1.0000  -10.7168   0.0000   0.2112
  18.000   1.3269   0.07895   0.07551   0.0127  0.0131  1.0000  -10.5519   0.0000   0.2147
  18.500   1.2823   0.09388   0.09069   0.0050  0.0130  1.0000  -10.2872   0.0000   0.2192
  19.000   1.2401   0.10896   0.10599  -0.0031  0.0130  1.0000  -9.9985   0.0000   0.2245
  19.500   1.2054   0.12322   0.12043  -0.0112  0.0129  1.0000  -9.7395   0.0000   0.2302
  20.000   1.1789   0.13640   0.13378  -0.0193  0.0127  1.0000  -9.5260   0.0000   0.2362
  20.500   1.1594   0.14851   0.14601  -0.0272  0.0125  1.0000  -9.3533   0.0000   0.2422
  21.000   1.1455   0.15956   0.15716  -0.0349  0.0123  1.0000  -9.2135   0.0000   0.2481
  21.500   1.1231   0.17303   0.17081  -0.0446  0.0121  1.0000  -8.8679   0.0000   0.2564


