xflr5 v6.33

 Calculated polar for: NACA 0012 v1

 1 1 Reynolds number fixed          Mach number fixed         

 xtrf =   1.000 (top)        1.000 (bottom)
 Mach =   0.000     Re =     2.000 e 6     Ncrit =   9.000

  alpha     CL        CD       CDp       Cm    Top Xtr Bot Xtr   Cpmin    Chinge    XCp    
 ------- -------- --------- --------- -------- ------- ------- -------- --------- ---------
 -24.000  -1.1242   0.21737   0.21581   0.0804  1.0000  0.0087  -8.7033   0.0000   0.2824
 -23.500  -1.1265   0.20806   0.20645   0.0727  1.0000  0.0090  -8.8623   0.0000   0.2764
 -23.000  -1.1335   0.19758   0.19590   0.0642  1.0000  0.0093  -9.0846   0.0000   0.2695
 -22.500  -1.1442   0.18650   0.18472   0.0555  1.0000  0.0095  -9.3237   0.0000   0.2623
 -22.000  -1.1593   0.17457   0.17267   0.0465  1.0000  0.0097  -9.5888   0.0000   0.2549
 -21.500  -1.1817   0.16145   0.15942   0.0369  1.0000  0.0099  -9.9073   0.0000   0.2470
 -21.000  -1.2149   0.14644   0.14424   0.0265  1.0000  0.0100  -10.3161   0.0000   0.2386
 -20.500  -1.2675   0.12828   0.12587   0.0148  1.0000  0.0100  -10.8935   0.0000   0.2295
 -20.000  -1.3463   0.10630   0.10360   0.0020  1.0000  0.0099  -11.6731   0.0000   0.2204
 -19.500  -1.4325   0.08433   0.08131  -0.0097  1.0000  0.0099  -12.4106   0.0000   0.2133
 -19.000  -1.4958   0.06715   0.06382  -0.0185  1.0000  0.0098  -12.8231   0.0000   0.2091
 -18.500  -1.5335   0.05469   0.05109  -0.0245  1.0000  0.0099  -12.9313   0.0000   0.2068
 -18.000  -1.5516   0.04565   0.04183  -0.0284  1.0000  0.0100  -12.8254   0.0000   0.2058
 -17.500  -1.5561   0.03904   0.03503  -0.0306  1.0000  0.0102  -12.5771   0.0000   0.2058
 -17.000  -1.5569   0.03358   0.02937  -0.0312  1.0000  0.0103  -12.3011   0.0000   0.2065
 -16.500  -1.5570   0.02895   0.02457  -0.0301  1.0000  0.0107  -12.0141   0.0000   0.2084
 -16.000  -1.5444   0.02601   0.02150  -0.0279  1.0000  0.0110  -11.6146   0.0000   0.2107
 -15.500  -1.5256   0.02386   0.01923  -0.0251  1.0000  0.0114  -11.1685   0.0000   0.2133
 -15.000  -1.5025   0.02220   0.01746  -0.0219  1.0000  0.0118  -10.6957   0.0000   0.2162
 -14.500  -1.4751   0.02093   0.01609  -0.0185  1.0000  0.0121  -10.1993   0.0000   0.2191
 -14.000  -1.4492   0.01938   0.01443  -0.0147  1.0000  0.0128  -9.7320   0.0000   0.2224
 -13.500  -1.4120   0.01824   0.01323  -0.0125  1.0000  0.0134  -9.1955   0.0000   0.2245
 -13.000  -1.3709   0.01729   0.01220  -0.0108  1.0000  0.0140  -8.6486   0.0000   0.2264
 -12.500  -1.3298   0.01622   0.01107  -0.0089  1.0000  0.0148  -8.1206   0.0000   0.2283
 -12.000  -1.2859   0.01534   0.01014  -0.0074  1.0000  0.0157  -7.6055   0.0000   0.2301
 -11.500  -1.2401   0.01459   0.00934  -0.0060  1.0000  0.0166  -7.0977   0.0000   0.2317
 -11.000  -1.1952   0.01375   0.00848  -0.0045  1.0000  0.0180  -6.6095   0.0000   0.2335
 -10.500  -1.1491   0.01309   0.00777  -0.0030  1.0000  0.0192  -6.1294   0.0000   0.2354
 -10.000  -1.1045   0.01242   0.00709  -0.0011  1.0000  0.0208  -5.6697   0.0000   0.2377
  -9.500  -1.0608   0.01182   0.00648   0.0011  1.0000  0.0227  -5.2412   0.0000   0.2404
  -9.000  -1.0178   0.01128   0.00592   0.0035  1.0000  0.0248  -4.8360   0.0000   0.2434
  -8.500  -0.9756   0.01078   0.00542   0.0061  1.0000  0.0274  -4.4462   0.0000   0.2468
  -7.500  -0.8484   0.00970   0.00439   0.0021  0.9965  0.0365  -3.5772   0.0000   0.2441
  -7.000  -0.7828   0.00918   0.00392  -0.0003  0.9940  0.0437  -3.1722   0.0000   0.2417
  -6.500  -0.7168   0.00866   0.00348  -0.0027  0.9912  0.0539  -2.8016   0.0000   0.2387
  -6.000  -0.6531   0.00818   0.00308  -0.0046  0.9862  0.0677  -2.4600   0.0000   0.2359
  -5.500  -0.5948   0.00772   0.00272  -0.0052  0.9765  0.0863  -2.1580   0.0000   0.2346
  -5.000  -0.5412   0.00728   0.00239  -0.0046  0.9616  0.1108  -1.8937   0.0000   0.2351
  -4.500  -0.4891   0.00687   0.00209  -0.0037  0.9418  0.1425  -1.6534   0.0000   0.2364
  -4.000  -0.4367   0.00648   0.00181  -0.0029  0.9174  0.1812  -1.4337   0.0000   0.2377
  -3.500  -0.3835   0.00614   0.00156  -0.0022  0.8879  0.2258  -1.2348   0.0000   0.2388
  -1.500  -0.1660   0.00532   0.00095  -0.0006  0.7238  0.4263  -0.6529   0.0000   0.2418
  -1.000  -0.1108   0.00523   0.00088  -0.0004  0.6758  0.4772  -0.5580   0.0000   0.2422
  -0.500  -0.0554   0.00519   0.00085  -0.0002  0.6268  0.5275  -0.4793   0.0000   0.2424
   0.000   0.0000   0.00517   0.00084  -0.0000  0.5774  0.5774  -0.4133   0.0000   0.4492
   0.500   0.0554   0.00519   0.00085   0.0002  0.5275  0.6268  -0.4793   0.0000   0.2424
   1.000   0.1108   0.00523   0.00088   0.0004  0.4772  0.6758  -0.5580   0.0000   0.2422
   1.500   0.1660   0.00532   0.00095   0.0006  0.4263  0.7237  -0.6529   0.0000   0.2418
   2.000   0.2210   0.00545   0.00105   0.0009  0.3753  0.7701  -0.7668   0.0000   0.2413
   3.500   0.3835   0.00614   0.00156   0.0023  0.2258  0.8879  -1.2348   0.0000   0.2388
   4.000   0.4367   0.00648   0.00181   0.0029  0.1812  0.9174  -1.4337   0.0000   0.2377
   4.500   0.4892   0.00687   0.00209   0.0038  0.1425  0.9418  -1.6534   0.0000   0.2364
   5.000   0.5412   0.00728   0.00239   0.0047  0.1108  0.9616  -1.8937   0.0000   0.2351
   5.500   0.5948   0.00772   0.00272   0.0053  0.0863  0.9765  -2.1581   0.0000   0.2346
   6.000   0.6531   0.00818   0.00308   0.0048  0.0677  0.9862  -2.4601   0.0000   0.2359
   6.500   0.7169   0.00866   0.00348   0.0029  0.0539  0.9912  -2.8017   0.0000   0.2387
   7.000   0.7828   0.00918   0.00392   0.0005  0.0437  0.9940  -3.1723   0.0000   0.2417
   8.000   0.9143   0.01021   0.00488  -0.0042  0.0314  0.9984  -4.0028   0.0000   0.2461
   8.500   0.9755   0.01078   0.00542  -0.0057  0.0274  1.0000  -4.4458   0.0000   0.2468
   9.000   1.0177   0.01128   0.00592  -0.0031  0.0248  1.0000  -4.8356   0.0000   0.2434
   9.500   1.0607   0.01182   0.00647  -0.0006  0.0227  1.0000  -5.2409   0.0000   0.2403
  10.000   1.1045   0.01242   0.00709   0.0016  0.0208  1.0000  -5.6696   0.0000   0.2377
  10.500   1.1491   0.01309   0.00777   0.0035  0.0192  1.0000  -6.1295   0.0000   0.2354
  11.000   1.1952   0.01375   0.00848   0.0050  0.0180  1.0000  -6.6098   0.0000   0.2336
  11.500   1.2402   0.01459   0.00934   0.0066  0.0166  1.0000  -7.0982   0.0000   0.2317
  12.000   1.2860   0.01534   0.01014   0.0080  0.0157  1.0000  -7.6062   0.0000   0.2301
  12.500   1.3299   0.01622   0.01107   0.0096  0.0148  1.0000  -8.1215   0.0000   0.2284
  13.000   1.3711   0.01729   0.01220   0.0115  0.0140  1.0000  -8.6498   0.0000   0.2264
  13.500   1.4123   0.01824   0.01323   0.0133  0.0134  1.0000  -9.1970   0.0000   0.2246
  14.000   1.4496   0.01938   0.01444   0.0155  0.0128  1.0000  -9.7338   0.0000   0.2224
  14.500   1.4757   0.02093   0.01609   0.0193  0.0121  1.0000  -10.2024   0.0000   0.2192
  15.000   1.5031   0.02220   0.01746   0.0227  0.0118  1.0000  -10.6994   0.0000   0.2163
  15.500   1.5263   0.02386   0.01923   0.0260  0.0114  1.0000  -11.1729   0.0000   0.2134
  16.000   1.5452   0.02600   0.02149   0.0288  0.0110  1.0000  -11.6199   0.0000   0.2108
  16.500   1.5579   0.02894   0.02455   0.0311  0.0107  1.0000  -12.0200   0.0000   0.2085
  17.000   1.5577   0.03357   0.02936   0.0322  0.0103  1.0000  -12.3066   0.0000   0.2067
  17.500   1.5575   0.03899   0.03498   0.0315  0.0102  1.0000  -12.5876   0.0000   0.2059
  18.000   1.5532   0.04558   0.04176   0.0294  0.0100  1.0000  -12.8377   0.0000   0.2059
  18.500   1.5353   0.05460   0.05101   0.0255  0.0099  1.0000  -12.9458   0.0000   0.2069
  19.000   1.4979   0.06703   0.06370   0.0194  0.0098  1.0000  -12.8399   0.0000   0.2092
  19.500   1.4348   0.08420   0.08117   0.0106  0.0098  1.0000  -12.4296   0.0000   0.2135
  20.000   1.3485   0.10620   0.10350  -0.0012  0.0099  1.0000  -11.6910   0.0000   0.2205
  20.500   1.2691   0.12827   0.12586  -0.0141  0.0100  1.0000  -10.9062   0.0000   0.2296
  21.000   1.2163   0.14650   0.14430  -0.0259  0.0100  1.0000  -10.3252   0.0000   0.2387
  21.500   1.1828   0.16155   0.15952  -0.0364  0.0099  1.0000  -9.9143   0.0000   0.2472
  22.000   1.1605   0.17473   0.17283  -0.0460  0.0097  1.0000  -9.5950   0.0000   0.2551
  22.500   1.1454   0.18667   0.18489  -0.0551  0.0095  1.0000  -9.3299   0.0000   0.2625
  23.000   1.1347   0.19781   0.19613  -0.0639  0.0093  1.0000  -9.0905   0.0000   0.2697
  23.500   1.1277   0.20836   0.20676  -0.0724  0.0090  1.0000  -8.8684   0.0000   0.2766
  24.000   1.1256   0.21771   0.21615  -0.0802  0.0087  1.0000  -8.7119   0.0000   0.2826


