xflr5 v6.33

 Calculated polar for: NACA 0012 v1

 1 1 Reynolds number fixed          Mach number fixed         

 xtrf =   1.000 (top)        1.000 (bottom)
 Mach =   0.000     Re =     0.800 e 6     Ncrit =   9.000

  alpha     CL        CD       CDp       Cm    Top Xtr Bot Xtr   Cpmin    Chinge    XCp    
 ------- -------- --------- --------- -------- ------- ------- -------- --------- ---------
 -20.500  -1.1113   0.15663   0.15407   0.0327  1.0000  0.0142  -8.5942   0.0000   0.2477
 -20.000  -1.1400   0.14207   0.13931   0.0227  1.0000  0.0144  -8.9617   0.0000   0.2392
 -19.500  -1.1571   0.13049   0.12760   0.0153  1.0000  0.0147  -9.0914   0.0000   0.2335
 -19.000  -1.1783   0.11826   0.11522   0.0078  1.0000  0.0149  -9.2298   0.0000   0.2280
 -18.500  -1.2040   0.10550   0.10227   0.0005  1.0000  0.0150  -9.3879   0.0000   0.2229
 -18.000  -1.2328   0.09262   0.08918  -0.0064  1.0000  0.0152  -9.5379   0.0000   0.2183
 -17.500  -1.2619   0.08013   0.07648  -0.0130  1.0000  0.0154  -9.6574   0.0000   0.2144
 -17.000  -1.2885   0.06858   0.06468  -0.0188  1.0000  0.0156  -9.7241   0.0000   0.2113
 -16.500  -1.3094   0.05834   0.05419  -0.0239  1.0000  0.0158  -9.7188   0.0000   0.2088
 -16.000  -1.3222   0.04967   0.04525  -0.0278  1.0000  0.0161  -9.6286   0.0000   0.2072
 -15.500  -1.3254   0.04280   0.03810  -0.0304  1.0000  0.0164  -9.4468   0.0000   0.2064
 -15.000  -1.3331   0.03631   0.03142  -0.0315  1.0000  0.0168  -9.2819   0.0000   0.2069
 -14.500  -1.3269   0.03202   0.02698  -0.0309  1.0000  0.0173  -8.9918   0.0000   0.2082
 -14.000  -1.3141   0.02887   0.02367  -0.0291  1.0000  0.0179  -8.6540   0.0000   0.2104
 -13.500  -1.2959   0.02647   0.02106  -0.0264  1.0000  0.0186  -8.2866   0.0000   0.2130
 -13.000  -1.2818   0.02412   0.01857  -0.0223  1.0000  0.0194  -7.9429   0.0000   0.2169
 -12.500  -1.2575   0.02256   0.01692  -0.0185  1.0000  0.0203  -7.5342   0.0000   0.2204
 -12.000  -1.2232   0.02122   0.01540  -0.0159  1.0000  0.0214  -7.1103   0.0000   0.2229
 -11.500  -1.1911   0.01959   0.01372  -0.0130  1.0000  0.0226  -6.7045   0.0000   0.2257
 -11.000  -1.1507   0.01849   0.01249  -0.0110  1.0000  0.0242  -6.2664   0.0000   0.2278
 -10.500  -1.1113   0.01726   0.01122  -0.0088  1.0000  0.0260  -5.8403   0.0000   0.2301
 -10.000  -1.0701   0.01617   0.01005  -0.0067  1.0000  0.0280  -5.4210   0.0000   0.2324
  -9.500  -1.0275   0.01525   0.00907  -0.0046  1.0000  0.0305  -5.0216   0.0000   0.2348
  -9.000  -0.9853   0.01441   0.00819  -0.0024  1.0000  0.0335  -4.6376   0.0000   0.2375
  -8.500  -0.9437   0.01360   0.00737   0.0001  1.0000  0.0372  -4.2665   0.0000   0.2406
  -8.000  -0.9020   0.01289   0.00665   0.0027  1.0000  0.0418  -3.9122   0.0000   0.2440
  -7.500  -0.8605   0.01224   0.00599   0.0053  1.0000  0.0477  -3.5810   0.0000   0.2478
  -7.000  -0.8190   0.01162   0.00540   0.0079  1.0000  0.0556  -3.2591   0.0000   0.2518
  -6.500  -0.7772   0.01104   0.00487   0.0105  1.0000  0.0665  -2.9597   0.0000   0.2561
  -6.000  -0.7147   0.01041   0.00434   0.0086  0.9975  0.0856  -2.6128   0.0000   0.2551
  -5.500  -0.6441   0.00974   0.00384   0.0051  0.9936  0.1165  -2.2750   0.0000   0.2512
  -5.000  -0.5735   0.00905   0.00338   0.0015  0.9893  0.1604  -1.9630   0.0000   0.2463
  -4.500  -0.5028   0.00837   0.00296  -0.0020  0.9843  0.2159  -1.6791   0.0000   0.2399
  -4.000  -0.4347   0.00774   0.00260  -0.0049  0.9769  0.2771  -1.4281   0.0000   0.2329
  -3.500  -0.3725   0.00720   0.00229  -0.0063  0.9650  0.3382  -1.2160   0.0000   0.2275
  -3.000  -0.3169   0.00675   0.00204  -0.0060  0.9467  0.3965  -1.0382   0.0000   0.2256
  -2.500  -0.2641   0.00637   0.00183  -0.0050  0.9231  0.4532  -0.8869   0.0000   0.2257
  -2.000  -0.2117   0.00607   0.00165  -0.0039  0.8935  0.5092  -0.7569   0.0000   0.2264
  -1.500  -0.1590   0.00584   0.00151  -0.0029  0.8582  0.5645  -0.6467   0.0000   0.2269
  -1.000  -0.1061   0.00568   0.00141  -0.0019  0.8174  0.6185  -0.5547   0.0000   0.2273
  -0.500  -0.0531   0.00560   0.00135  -0.0009  0.7720  0.6717  -0.4782   0.0000   0.2274
   0.000  -0.0000   0.00557   0.00132  -0.0000  0.7231  0.7231  -0.4137   0.0000   0.6422
   0.500   0.0531   0.00560   0.00135   0.0009  0.6717  0.7720  -0.4782   0.0000   0.2274
   1.000   0.1061   0.00568   0.00141   0.0019  0.6186  0.8174  -0.5547   0.0000   0.2273
   1.500   0.1590   0.00584   0.00151   0.0029  0.5645  0.8582  -0.6467   0.0000   0.2269
   2.000   0.2117   0.00607   0.00165   0.0039  0.5092  0.8935  -0.7569   0.0000   0.2264
   2.500   0.2641   0.00637   0.00183   0.0051  0.4532  0.9231  -0.8869   0.0000   0.2257
   3.000   0.3169   0.00675   0.00204   0.0060  0.3965  0.9467  -1.0382   0.0000   0.2256
   3.500   0.3725   0.00720   0.00229   0.0063  0.3381  0.9650  -1.2160   0.0000   0.2275
   4.000   0.4347   0.00774   0.00260   0.0050  0.2771  0.9769  -1.4281   0.0000   0.2329
   4.500   0.5028   0.00837   0.00296   0.0021  0.2159  0.9844  -1.6791   0.0000   0.2399
   5.000   0.5735   0.00905   0.00338  -0.0014  0.1604  0.9893  -1.9631   0.0000   0.2463
   5.500   0.6441   0.00973   0.00384  -0.0049  0.1164  0.9937  -2.2751   0.0000   0.2512
   6.000   0.7147   0.01041   0.00434  -0.0085  0.0856  0.9975  -2.6129   0.0000   0.2551
   6.500   0.7772   0.01104   0.00487  -0.0103  0.0665  1.0000  -2.9594   0.0000   0.2561
   7.000   0.8189   0.01162   0.00540  -0.0077  0.0556  1.0000  -3.2588   0.0000   0.2518
   7.500   0.8604   0.01223   0.00598  -0.0050  0.0477  1.0000  -3.5807   0.0000   0.2477
   8.000   0.9020   0.01289   0.00664  -0.0023  0.0418  1.0000  -3.9120   0.0000   0.2440
   8.500   0.9437   0.01360   0.00736   0.0002  0.0372  1.0000  -4.2663   0.0000   0.2406
   9.000   0.9853   0.01441   0.00819   0.0028  0.0335  1.0000  -4.6375   0.0000   0.2375
   9.500   1.0275   0.01525   0.00907   0.0051  0.0305  1.0000  -5.0216   0.0000   0.2348
  10.000   1.0701   0.01617   0.01005   0.0071  0.0280  1.0000  -5.4212   0.0000   0.2324
  10.500   1.1114   0.01726   0.01122   0.0093  0.0260  1.0000  -5.8407   0.0000   0.2301
  11.000   1.1508   0.01849   0.01249   0.0115  0.0242  1.0000  -6.2669   0.0000   0.2278
  11.500   1.1913   0.01959   0.01372   0.0135  0.0226  1.0000  -6.7053   0.0000   0.2257
  12.000   1.2234   0.02122   0.01540   0.0164  0.0214  1.0000  -7.1115   0.0000   0.2229
  12.500   1.2578   0.02256   0.01692   0.0191  0.0203  1.0000  -7.5358   0.0000   0.2204
  13.000   1.2822   0.02412   0.01858   0.0229  0.0194  1.0000  -7.9452   0.0000   0.2169
  13.500   1.2965   0.02647   0.02106   0.0271  0.0186  1.0000  -8.2897   0.0000   0.2131
  14.000   1.3147   0.02887   0.02366   0.0298  0.0179  1.0000  -8.6576   0.0000   0.2104
  14.500   1.3277   0.03201   0.02697   0.0316  0.0173  1.0000  -8.9962   0.0000   0.2083
  15.000   1.3339   0.03630   0.03141   0.0322  0.0168  1.0000  -9.2866   0.0000   0.2070
  15.500   1.3264   0.04277   0.03807   0.0311  0.0164  1.0000  -9.4533   0.0000   0.2065
  16.000   1.3233   0.04964   0.04522   0.0285  0.0161  1.0000  -9.6356   0.0000   0.2073
  16.500   1.3107   0.05831   0.05415   0.0245  0.0158  1.0000  -9.7267   0.0000   0.2090
  17.000   1.2899   0.06855   0.06465   0.0195  0.0156  1.0000  -9.7328   0.0000   0.2114
  17.500   1.2634   0.08010   0.07645   0.0136  0.0154  1.0000  -9.6666   0.0000   0.2146
  18.000   1.2342   0.09259   0.08915   0.0070  0.0152  1.0000  -9.5473   0.0000   0.2185
  18.500   1.2055   0.10548   0.10225   0.0000  0.0150  1.0000  -9.3975   0.0000   0.2231
  19.000   1.1797   0.11825   0.11521  -0.0073  0.0148  1.0000  -9.2395   0.0000   0.2282
  19.500   1.1585   0.13050   0.12761  -0.0147  0.0146  1.0000  -9.1020   0.0000   0.2336
  20.000   1.1414   0.14211   0.13934  -0.0222  0.0144  1.0000  -8.9713   0.0000   0.2393
  20.500   1.1120   0.15686   0.15430  -0.0323  0.0142  1.0000  -8.5929   0.0000   0.2480
  26.500   0.6570   0.28360   0.28196  -0.0677  0.0085  1.0000  -1.3804   0.0000   0.3290
  27.000   0.6594   0.29137   0.28975  -0.0705  0.0081  1.0000  -1.2136   0.0000   0.3326
  27.500   0.6646   0.29691   0.29530  -0.0731  0.0074  1.0000  -1.2081   0.0000   0.3349
  28.000   0.6702   0.30172   0.30012  -0.0757  0.0071  1.0000  -1.2507   0.0000   0.3368
  28.500   0.6762   0.30580   0.30422  -0.0780  0.0069  1.0000  -1.3555   0.0000   0.3380
  29.000   0.6785   0.31399   0.31243  -0.0808  0.0064  1.0000  -1.1471   0.0000   0.3416
  29.500   0.6831   0.31954   0.31800  -0.0834  0.0059  1.0000  -1.1557   0.0000   0.3437
  30.000   0.6878   0.32441   0.32289  -0.0860  0.0056  1.0000  -1.1982   0.0000   0.3456
  30.500   0.6926   0.32870   0.32719  -0.0886  0.0055  1.0000  -1.2864   0.0000   0.3470
  31.000   0.6950   0.33680   0.33531  -0.0912  0.0051  1.0000  -1.0962   0.0000   0.3500
  31.500   0.6988   0.34242   0.34094  -0.0938  0.0046  1.0000  -1.0933   0.0000   0.3520
  32.000   0.7026   0.34752   0.34606  -0.0965  0.0044  1.0000  -1.1257   0.0000   0.3539
  32.500   0.7062   0.35201   0.35057  -0.0992  0.0042  1.0000  -1.1927   0.0000   0.3556
  33.000   0.7087   0.35880   0.35738  -0.1018  0.0041  1.0000  -1.1164   0.0000   0.3578
  33.500   0.7115   0.36520   0.36380  -0.1044  0.0037  1.0000  -1.0427   0.0000   0.3599
  34.000   0.7144   0.37063   0.36925  -0.1070  0.0034  1.0000  -1.0437   0.0000   0.3618
  34.500   0.7170   0.37548   0.37412  -0.1098  0.0032  1.0000  -1.0826   0.0000   0.3636
  35.000   0.7192   0.37978   0.37843  -0.1125  0.0031  1.0000  -1.1543   0.0000   0.3652
  35.500   0.7209   0.38707   0.38574  -0.1150  0.0030  1.0000  -1.0464   0.0000   0.3674
  36.000   0.7227   0.39308   0.39177  -0.1175  0.0027  1.0000  -0.9979   0.0000   0.3693
  36.500   0.7244   0.39836   0.39706  -0.1202  0.0024  1.0000  -0.9947   0.0000   0.3711
  37.000   0.7258   0.40307   0.40180  -0.1230  0.0022  1.0000  -1.0196   0.0000   0.3728
  37.500   0.7268   0.40721   0.40595  -0.1257  0.0022  1.0000  -1.0779   0.0000   0.3745
  38.000   0.7275   0.41369   0.41245  -0.1283  0.0021  1.0000  -1.0207   0.0000   0.3765
  38.500   0.7283   0.41970   0.41848  -0.1307  0.0020  1.0000  -0.9595   0.0000   0.3782
  39.000   0.7288   0.42488   0.42368  -0.1333  0.0017  1.0000  -0.9470   0.0000   0.3800
  39.500   0.7290   0.42959   0.42841  -0.1360  0.0015  1.0000  -0.9510   0.0000   0.3817
  40.000   0.7289   0.43378   0.43262  -0.1388  0.0014  1.0000  -0.9868   0.0000   0.3835


