xflr5 v6.33

 Calculated polar for: NACA 0012 v1

 1 1 Reynolds number fixed          Mach number fixed         

 xtrf =   1.000 (top)        1.000 (bottom)
 Mach =   0.000     Re =     3.000 e 6     Ncrit =   9.000

  alpha     CL        CD       CDp       Cm    Top Xtr Bot Xtr   Cpmin    Chinge    XCp    
 ------- -------- --------- --------- -------- ------- ------- -------- --------- ---------
 -25.500  -1.1370   0.24112   0.23988   0.1012  1.0000  0.0068  -8.5610   0.0000   0.2965
 -25.000  -1.1366   0.23225   0.23095   0.0933  1.0000  0.0072  -8.7629   0.0000   0.2907
 -24.500  -1.1383   0.22292   0.22157   0.0854  1.0000  0.0075  -8.9620   0.0000   0.2845
 -24.000  -1.1436   0.21276   0.21135   0.0769  1.0000  0.0078  -9.2015   0.0000   0.2777
 -23.500  -1.1523   0.20190   0.20040   0.0680  1.0000  0.0080  -9.4635   0.0000   0.2705
 -23.000  -1.1668   0.18993   0.18832   0.0584  1.0000  0.0082  -9.7812   0.0000   0.2625
 -22.500  -1.1898   0.17635   0.17461   0.0479  1.0000  0.0084  -10.1837   0.0000   0.2536
 -22.000  -1.2304   0.15947   0.15756   0.0355  1.0000  0.0084  -10.7832   0.0000   0.2431
 -21.500  -1.3090   0.13598   0.13379   0.0192  1.0000  0.0084  -11.7961   0.0000   0.2299
 -21.000  -1.4213   0.10812   0.10556   0.0022  1.0000  0.0083  -13.0291   0.0000   0.2179
 -20.500  -1.5200   0.08451   0.08160  -0.0105  1.0000  0.0082  -13.9178   0.0000   0.2107
 -20.000  -1.5846   0.06752   0.06432  -0.0191  1.0000  0.0082  -14.3424   0.0000   0.2070
 -19.500  -1.6226   0.05532   0.05187  -0.0248  1.0000  0.0083  -14.4432   0.0000   0.2052
 -19.000  -1.6422   0.04634   0.04269  -0.0286  1.0000  0.0083  -14.3348   0.0000   0.2045
 -18.500  -1.6484   0.03962   0.03579  -0.0307  1.0000  0.0084  -14.0826   0.0000   0.2046
 -18.000  -1.6486   0.03421   0.03021  -0.0314  1.0000  0.0085  -13.7659   0.0000   0.2054
 -17.500  -1.6489   0.02946   0.02529  -0.0307  1.0000  0.0089  -13.4469   0.0000   0.2070
 -17.000  -1.6383   0.02626   0.02196  -0.0288  1.0000  0.0092  -13.0306   0.0000   0.2092
 -16.500  -1.6213   0.02391   0.01952  -0.0262  1.0000  0.0095  -12.5735   0.0000   0.2116
 -16.000  -1.6000   0.02211   0.01762  -0.0231  1.0000  0.0097  -12.0864   0.0000   0.2144
 -15.500  -1.5751   0.02067   0.01609  -0.0197  1.0000  0.0100  -11.5797   0.0000   0.2173
 -15.000  -1.5471   0.01954   0.01487  -0.0162  1.0000  0.0102  -11.0567   0.0000   0.2203
 -14.500  -1.5158   0.01819   0.01345  -0.0131  1.0000  0.0108  -10.5327   0.0000   0.2229
 -14.000  -1.4770   0.01716   0.01237  -0.0111  1.0000  0.0114  -9.9631   0.0000   0.2250
 -13.500  -1.4347   0.01628   0.01145  -0.0095  1.0000  0.0119  -9.3847   0.0000   0.2268
 -13.000  -1.3913   0.01541   0.01052  -0.0079  1.0000  0.0124  -8.8175   0.0000   0.2285
 -12.500  -1.3472   0.01453   0.00960  -0.0064  1.0000  0.0133  -8.2611   0.0000   0.2302
 -12.000  -1.3007   0.01383   0.00887  -0.0052  1.0000  0.0140  -7.7230   0.0000   0.2318
 -11.500  -1.2543   0.01309   0.00810  -0.0039  1.0000  0.0149  -7.2076   0.0000   0.2335
 -11.000  -1.2074   0.01246   0.00745  -0.0026  1.0000  0.0161  -6.7003   0.0000   0.2352
 -10.500  -1.1617   0.01185   0.00683  -0.0009  1.0000  0.0172  -6.2159   0.0000   0.2372
 -10.000  -1.1169   0.01131   0.00629   0.0011  1.0000  0.0186  -5.7491   0.0000   0.2397
  -9.500  -1.0740   0.01079   0.00575   0.0035  1.0000  0.0202  -5.3173   0.0000   0.2426
  -9.000  -1.0222   0.01028   0.00525   0.0040  0.9994  0.0223  -4.8711   0.0000   0.2439
  -8.500  -0.9588   0.00976   0.00475   0.0021  0.9977  0.0251  -4.3957   0.0000   0.2427
  -8.000  -0.8945   0.00926   0.00428  -0.0001  0.9961  0.0288  -3.9444   0.0000   0.2410
  -7.000  -0.7675   0.00834   0.00345  -0.0038  0.9900  0.0395  -3.1320   0.0000   0.2371
  -6.500  -0.7092   0.00793   0.00309  -0.0044  0.9819  0.0472  -2.7840   0.0000   0.2363
  -6.000  -0.6553   0.00754   0.00276  -0.0039  0.9691  0.0578  -2.4693   0.0000   0.2369
  -5.500  -0.6031   0.00719   0.00245  -0.0031  0.9514  0.0718  -2.1815   0.0000   0.2382
  -5.000  -0.5501   0.00685   0.00215  -0.0023  0.9295  0.0906  -1.9158   0.0000   0.2394
  -4.500  -0.4965   0.00653   0.00188  -0.0018  0.9026  0.1153  -1.6698   0.0000   0.2405
  -4.000  -0.4425   0.00623   0.00163  -0.0013  0.8708  0.1471  -1.4454   0.0000   0.2414
  -3.500  -0.3882   0.00597   0.00141  -0.0009  0.8341  0.1851  -1.2427   0.0000   0.2422
  -3.000  -0.3335   0.00573   0.00122  -0.0006  0.7932  0.2280  -1.0632   0.0000   0.2429
  -2.500  -0.2785   0.00554   0.00107  -0.0004  0.7493  0.2741  -0.9051   0.0000   0.2436
  -2.000  -0.2232   0.00538   0.00094  -0.0002  0.7034  0.3218  -0.7692   0.0000   0.2441
  -1.500  -0.1676   0.00526   0.00085  -0.0001  0.6565  0.3699  -0.6542   0.0000   0.2445
  -1.000  -0.1119   0.00518   0.00079  -0.0001  0.6093  0.4184  -0.5585   0.0000   0.2447
  -0.500  -0.0560   0.00513   0.00075  -0.0000  0.5620  0.4667  -0.4794   0.0000   0.2449
   0.000  -0.0000   0.00512   0.00074  -0.0000  0.5145  0.5145  -0.4131   0.0000   0.3733
   0.500   0.0560   0.00513   0.00075   0.0000  0.4667  0.5620  -0.4794   0.0000   0.2449
   1.000   0.1119   0.00518   0.00079   0.0001  0.4184  0.6093  -0.5585   0.0000   0.2447
   1.500   0.1676   0.00526   0.00085   0.0002  0.3699  0.6565  -0.6542   0.0000   0.2445
   2.500   0.2785   0.00554   0.00107   0.0004  0.2740  0.7493  -0.9051   0.0000   0.2436
   3.000   0.3335   0.00573   0.00122   0.0007  0.2280  0.7932  -1.0632   0.0000   0.2429
   4.000   0.4426   0.00623   0.00163   0.0014  0.1471  0.8708  -1.4454   0.0000   0.2414
   4.500   0.4966   0.00653   0.00188   0.0019  0.1153  0.9026  -1.6699   0.0000   0.2405
   5.000   0.5501   0.00685   0.00215   0.0025  0.0906  0.9295  -1.9159   0.0000   0.2394
   5.500   0.6031   0.00719   0.00245   0.0032  0.0718  0.9514  -2.1816   0.0000   0.2383
   6.000   0.6554   0.00754   0.00276   0.0041  0.0578  0.9690  -2.4694   0.0000   0.2369
   6.500   0.7092   0.00793   0.00309   0.0046  0.0472  0.9819  -2.7841   0.0000   0.2363
   7.000   0.7676   0.00834   0.00345   0.0040  0.0395  0.9900  -3.1321   0.0000   0.2371
   8.000   0.8945   0.00926   0.00428   0.0004  0.0288  0.9962  -3.9446   0.0000   0.2410
   8.500   0.9589   0.00976   0.00475  -0.0018  0.0251  0.9977  -4.3959   0.0000   0.2427
   9.000   1.0222   0.01028   0.00525  -0.0037  0.0223  0.9994  -4.8713   0.0000   0.2439
   9.500   1.0739   0.01078   0.00575  -0.0031  0.0202  1.0000  -5.3169   0.0000   0.2426
  10.000   1.1169   0.01131   0.00628  -0.0006  0.0186  1.0000  -5.7489   0.0000   0.2397
  10.500   1.1616   0.01185   0.00683   0.0014  0.0172  1.0000  -6.2158   0.0000   0.2372
  11.000   1.2074   0.01246   0.00745   0.0031  0.0161  1.0000  -6.7005   0.0000   0.2352
  11.500   1.2544   0.01309   0.00810   0.0045  0.0149  1.0000  -7.2079   0.0000   0.2335
  12.000   1.3008   0.01383   0.00887   0.0059  0.0140  1.0000  -7.7236   0.0000   0.2318
  12.500   1.3473   0.01453   0.00960   0.0071  0.0133  1.0000  -8.2619   0.0000   0.2303
  13.000   1.3915   0.01541   0.01052   0.0087  0.0124  1.0000  -8.8185   0.0000   0.2285
  13.500   1.4349   0.01629   0.01145   0.0102  0.0119  1.0000  -9.3859   0.0000   0.2268
  14.000   1.4772   0.01716   0.01237   0.0119  0.0114  1.0000  -9.9646   0.0000   0.2250
  14.500   1.5161   0.01819   0.01345   0.0140  0.0108  1.0000  -10.5346   0.0000   0.2230
  15.000   1.5476   0.01954   0.01487   0.0170  0.0102  1.0000  -11.0598   0.0000   0.2203
  15.500   1.5757   0.02067   0.01609   0.0206  0.0100  1.0000  -11.5835   0.0000   0.2173
  16.000   1.6007   0.02210   0.01761   0.0240  0.0097  1.0000  -12.0910   0.0000   0.2144
  16.500   1.6221   0.02391   0.01951   0.0272  0.0095  1.0000  -12.5789   0.0000   0.2117
  17.000   1.6392   0.02625   0.02195   0.0298  0.0092  1.0000  -13.0369   0.0000   0.2093
  17.500   1.6499   0.02944   0.02527   0.0317  0.0089  1.0000  -13.4542   0.0000   0.2071
  18.000   1.6496   0.03420   0.03020   0.0325  0.0085  1.0000  -13.7735   0.0000   0.2055
  18.500   1.6499   0.03956   0.03573   0.0318  0.0084  1.0000  -14.0948   0.0000   0.2047
  19.000   1.6440   0.04626   0.04261   0.0297  0.0083  1.0000  -14.3492   0.0000   0.2046
  19.500   1.6246   0.05522   0.05177   0.0260  0.0083  1.0000  -14.4604   0.0000   0.2053
  20.000   1.5870   0.06739   0.06418   0.0202  0.0082  1.0000  -14.3624   0.0000   0.2071
  20.500   1.5226   0.08434   0.08142   0.0116  0.0082  1.0000  -13.9414   0.0000   0.2108
  21.000   1.4239   0.10794   0.10539  -0.0013  0.0083  1.0000  -13.0541   0.0000   0.2180
  21.500   1.3110   0.13596   0.13377  -0.0185  0.0084  1.0000  -11.8136   0.0000   0.2300
  22.000   1.2319   0.15959   0.15767  -0.0349  0.0084  1.0000  -10.7945   0.0000   0.2432
  22.500   1.1911   0.17648   0.17474  -0.0474  0.0084  1.0000  -10.1918   0.0000   0.2538
  23.000   1.1680   0.19018   0.18857  -0.0580  0.0082  1.0000  -9.7879   0.0000   0.2627
  23.500   1.1535   0.20215   0.20065  -0.0676  0.0080  1.0000  -9.4701   0.0000   0.2706
  24.000   1.1449   0.21307   0.21165  -0.0766  0.0078  1.0000  -9.2078   0.0000   0.2779
  24.500   1.1396   0.22331   0.22196  -0.0851  0.0075  1.0000  -8.9677   0.0000   0.2847
  25.000   1.1380   0.23268   0.23138  -0.0931  0.0072  1.0000  -8.7700   0.0000   0.2908
  25.500   1.1383   0.24175   0.24051  -0.1010  0.0068  1.0000  -8.5651   0.0000   0.2967


