xflr5 v6.33

 Calculated polar for: NACA 0012 v1

 1 1 Reynolds number fixed          Mach number fixed         

 xtrf =   1.000 (top)        1.000 (bottom)
 Mach =   0.000     Re =     3.200 e 6     Ncrit =   9.000

  alpha     CL        CD       CDp       Cm    Top Xtr Bot Xtr   Cpmin    Chinge    XCp    
 ------- -------- --------- --------- -------- ------- ------- -------- --------- ---------
 -28.000  -0.6756   0.30064   0.29985   0.0772  1.0000  0.0026  -1.4007   0.0000   0.3378
 -25.500  -1.1392   0.24050   0.23928   0.1007  1.0000  0.0068  -8.6346   0.0000   0.2959
 -25.000  -1.1406   0.23113   0.22984   0.0926  1.0000  0.0070  -8.8760   0.0000   0.2896
 -24.500  -1.1418   0.22201   0.22067   0.0847  1.0000  0.0074  -9.0572   0.0000   0.2836
 -24.000  -1.1480   0.21166   0.21025   0.0760  1.0000  0.0077  -9.3082   0.0000   0.2767
 -23.500  -1.1587   0.20033   0.19884   0.0668  1.0000  0.0079  -9.6041   0.0000   0.2690
 -23.000  -1.1769   0.18759   0.18599   0.0566  1.0000  0.0081  -9.9787   0.0000   0.2604
 -22.500  -1.2094   0.17203   0.17028   0.0447  1.0000  0.0082  -10.5234   0.0000   0.2501
 -22.000  -1.2704   0.15129   0.14931   0.0296  1.0000  0.0083  -11.3947   0.0000   0.2373
 -21.500  -1.3721   0.12420   0.12188   0.0116  1.0000  0.0082  -12.6371   0.0000   0.2235
 -21.000  -1.4817   0.09785   0.09515  -0.0037  1.0000  0.0081  -13.7487   0.0000   0.2138
 -20.500  -1.5652   0.07737   0.07435  -0.0143  1.0000  0.0080  -14.4240   0.0000   0.2085
 -20.000  -1.6182   0.06256   0.05928  -0.0216  1.0000  0.0080  -14.7027   0.0000   0.2058
 -19.500  -1.6489   0.05172   0.04822  -0.0265  1.0000  0.0081  -14.7165   0.0000   0.2045
 -19.000  -1.6636   0.04363   0.03993  -0.0296  1.0000  0.0082  -14.5509   0.0000   0.2041
 -18.500  -1.6670   0.03750   0.03363  -0.0311  1.0000  0.0083  -14.2645   0.0000   0.2045
 -18.000  -1.6620   0.03285   0.02883  -0.0314  1.0000  0.0084  -13.8925   0.0000   0.2055
 -17.500  -1.6544   0.02896   0.02481  -0.0305  1.0000  0.0086  -13.4963   0.0000   0.2072
 -17.000  -1.6465   0.02562   0.02132  -0.0283  1.0000  0.0090  -13.1039   0.0000   0.2096
 -16.500  -1.6299   0.02331   0.01892  -0.0254  1.0000  0.0093  -12.6487   0.0000   0.2122
 -16.000  -1.6084   0.02157   0.01709  -0.0222  1.0000  0.0096  -12.1575   0.0000   0.2150
 -15.500  -1.5832   0.02020   0.01563  -0.0187  1.0000  0.0099  -11.6455   0.0000   0.2180
 -15.000  -1.5543   0.01910   0.01445  -0.0152  1.0000  0.0101  -11.1155   0.0000   0.2209
 -14.500  -1.5191   0.01794   0.01322  -0.0127  1.0000  0.0105  -10.5604   0.0000   0.2233
 -14.000  -1.4807   0.01685   0.01208  -0.0106  1.0000  0.0112  -9.9946   0.0000   0.2253
 -13.500  -1.4382   0.01598   0.01117  -0.0090  1.0000  0.0117  -9.4138   0.0000   0.2271
 -13.000  -1.3934   0.01522   0.01036  -0.0076  1.0000  0.0121  -8.8336   0.0000   0.2287
 -12.500  -1.3495   0.01430   0.00941  -0.0061  1.0000  0.0130  -8.2802   0.0000   0.2305
 -12.000  -1.3030   0.01359   0.00867  -0.0049  1.0000  0.0138  -7.7412   0.0000   0.2321
 -11.500  -1.2559   0.01292   0.00797  -0.0037  1.0000  0.0146  -7.2196   0.0000   0.2337
 -11.000  -1.2093   0.01226   0.00730  -0.0023  1.0000  0.0158  -6.7144   0.0000   0.2354
 -10.500  -1.1633   0.01170   0.00672  -0.0006  1.0000  0.0169  -6.2269   0.0000   0.2375
 -10.000  -1.1191   0.01114   0.00616   0.0015  1.0000  0.0183  -5.7621   0.0000   0.2400
  -9.500  -1.0761   0.01064   0.00566   0.0039  1.0000  0.0198  -5.3290   0.0000   0.2430
  -9.000  -1.0194   0.01013   0.00516   0.0034  0.9990  0.0219  -4.8622   0.0000   0.2433
  -8.500  -0.9562   0.00962   0.00466   0.0015  0.9974  0.0246  -4.3871   0.0000   0.2421
  -8.000  -0.8918   0.00912   0.00420  -0.0007  0.9959  0.0283  -3.9366   0.0000   0.2403
  -7.500  -0.8280   0.00866   0.00378  -0.0026  0.9935  0.0328  -3.5185   0.0000   0.2384
  -7.000  -0.7664   0.00822   0.00338  -0.0041  0.9889  0.0389  -3.1294   0.0000   0.2367
  -6.500  -0.7098   0.00782   0.00303  -0.0043  0.9793  0.0463  -2.7866   0.0000   0.2365
  -6.000  -0.6570   0.00746   0.00271  -0.0035  0.9647  0.0563  -2.4743   0.0000   0.2376
  -5.500  -0.6046   0.00712   0.00241  -0.0027  0.9461  0.0697  -2.1857   0.0000   0.2389
  -5.000  -0.5513   0.00680   0.00212  -0.0020  0.9233  0.0876  -1.9188   0.0000   0.2400
  -4.500  -0.4975   0.00648   0.00185  -0.0015  0.8952  0.1118  -1.6720   0.0000   0.2410
  -4.000  -0.4433   0.00620   0.00161  -0.0011  0.8621  0.1424  -1.4469   0.0000   0.2418
  -3.500  -0.3888   0.00594   0.00139  -0.0008  0.8245  0.1793  -1.2438   0.0000   0.2426
  -3.000  -0.3340   0.00572   0.00120  -0.0005  0.7827  0.2212  -1.0640   0.0000   0.2433
  -2.500  -0.2789   0.00553   0.00105  -0.0003  0.7384  0.2665  -0.9056   0.0000   0.2439
  -2.000  -0.2235   0.00538   0.00093  -0.0002  0.6925  0.3137  -0.7695   0.0000   0.2444
  -1.500  -0.1678   0.00526   0.00084  -0.0001  0.6457  0.3613  -0.6544   0.0000   0.2448
  -1.000  -0.1120   0.00518   0.00078  -0.0000  0.5987  0.4094  -0.5586   0.0000   0.2450
  -0.500  -0.0560   0.00513   0.00074  -0.0000  0.5518  0.4572  -0.4794   0.0000   0.2452
   0.000  -0.0000   0.00511   0.00073  -0.0000  0.5047  0.5046  -0.4130   0.0000   0.4185
   0.500   0.0560   0.00513   0.00074   0.0000  0.4572  0.5518  -0.4794   0.0000   0.2452
   1.000   0.1120   0.00518   0.00078   0.0000  0.4094  0.5987  -0.5586   0.0000   0.2450
   1.500   0.1678   0.00526   0.00084   0.0001  0.3613  0.6457  -0.6544   0.0000   0.2448
   2.000   0.2235   0.00538   0.00093   0.0002  0.3137  0.6925  -0.7695   0.0000   0.2444
   2.500   0.2789   0.00553   0.00105   0.0003  0.2665  0.7384  -0.9056   0.0000   0.2439
   3.000   0.3340   0.00572   0.00120   0.0005  0.2212  0.7827  -1.0640   0.0000   0.2433
   3.500   0.3889   0.00594   0.00139   0.0008  0.1793  0.8245  -1.2438   0.0000   0.2426
   4.000   0.4433   0.00620   0.00161   0.0012  0.1424  0.8621  -1.4469   0.0000   0.2418
   4.500   0.4975   0.00648   0.00185   0.0016  0.1118  0.8952  -1.6721   0.0000   0.2410
   5.000   0.5514   0.00680   0.00212   0.0022  0.0876  0.9232  -1.9189   0.0000   0.2400
   5.500   0.6046   0.00712   0.00241   0.0028  0.0697  0.9461  -2.1857   0.0000   0.2389
   6.000   0.6571   0.00746   0.00271   0.0037  0.0563  0.9647  -2.4744   0.0000   0.2376
   6.500   0.7099   0.00782   0.00303   0.0044  0.0463  0.9793  -2.7867   0.0000   0.2365
   7.000   0.7664   0.00822   0.00338   0.0043  0.0389  0.9890  -3.1295   0.0000   0.2368
   7.500   0.8281   0.00866   0.00378   0.0029  0.0328  0.9935  -3.5187   0.0000   0.2384
   8.000   0.8919   0.00912   0.00420   0.0010  0.0283  0.9959  -3.9368   0.0000   0.2403
   8.500   0.9562   0.00962   0.00466  -0.0011  0.0246  0.9974  -4.3874   0.0000   0.2421
   9.000   1.0195   0.01013   0.00516  -0.0030  0.0219  0.9991  -4.8624   0.0000   0.2433
   9.500   1.0760   0.01064   0.00566  -0.0035  0.0198  1.0000  -5.3286   0.0000   0.2429
  10.000   1.1190   0.01114   0.00616  -0.0010  0.0183  1.0000  -5.7617   0.0000   0.2400
  10.500   1.1633   0.01170   0.00672   0.0011  0.0169  1.0000  -6.2267   0.0000   0.2375
  11.000   1.2094   0.01226   0.00730   0.0028  0.0158  1.0000  -6.7145   0.0000   0.2354
  11.500   1.2560   0.01292   0.00797   0.0043  0.0146  1.0000  -7.2200   0.0000   0.2337
  12.000   1.3031   0.01359   0.00867   0.0055  0.0138  1.0000  -7.7418   0.0000   0.2321
  12.500   1.3497   0.01430   0.00941   0.0068  0.0130  1.0000  -8.2810   0.0000   0.2305
  13.000   1.3936   0.01522   0.01036   0.0084  0.0121  1.0000  -8.8346   0.0000   0.2288
  13.500   1.4384   0.01598   0.01117   0.0098  0.0117  1.0000  -9.4150   0.0000   0.2271
  14.000   1.4809   0.01685   0.01208   0.0114  0.0112  1.0000  -9.9962   0.0000   0.2254
  14.500   1.5194   0.01794   0.01322   0.0136  0.0105  1.0000  -10.5622   0.0000   0.2233
  15.000   1.5547   0.01910   0.01445   0.0161  0.0101  1.0000  -11.1181   0.0000   0.2210
  15.500   1.5838   0.02020   0.01563   0.0196  0.0099  1.0000  -11.6492   0.0000   0.2180
  16.000   1.6090   0.02157   0.01708   0.0232  0.0096  1.0000  -12.1619   0.0000   0.2151
  16.500   1.6307   0.02331   0.01891   0.0264  0.0093  1.0000  -12.6540   0.0000   0.2123
  17.000   1.6473   0.02561   0.02131   0.0293  0.0089  1.0000  -13.1099   0.0000   0.2097
  17.500   1.6553   0.02896   0.02480   0.0316  0.0086  1.0000  -13.5030   0.0000   0.2073
  18.000   1.6632   0.03281   0.02880   0.0325  0.0084  1.0000  -13.9023   0.0000   0.2057
  18.500   1.6685   0.03745   0.03358   0.0323  0.0083  1.0000  -14.2762   0.0000   0.2046
  19.000   1.6653   0.04356   0.03986   0.0307  0.0082  1.0000  -14.5647   0.0000   0.2042
  19.500   1.6508   0.05163   0.04812   0.0277  0.0081  1.0000  -14.7328   0.0000   0.2046
  20.000   1.6204   0.06244   0.05915   0.0228  0.0080  1.0000  -14.7222   0.0000   0.2059
  20.500   1.5677   0.07721   0.07419   0.0154  0.0080  1.0000  -14.4460   0.0000   0.2087
  21.000   1.4844   0.09766   0.09497   0.0047  0.0080  1.0000  -13.7738   0.0000   0.2139
  21.500   1.3743   0.12412   0.12179  -0.0107  0.0082  1.0000  -12.6567   0.0000   0.2236
  22.000   1.2720   0.15135   0.14936  -0.0289  0.0083  1.0000  -11.4078   0.0000   0.2374
  22.500   1.2107   0.17216   0.17041  -0.0442  0.0082  1.0000  -10.5324   0.0000   0.2503
  23.000   1.1782   0.18777   0.18617  -0.0562  0.0081  1.0000  -9.9862   0.0000   0.2606
  23.500   1.1599   0.20061   0.19912  -0.0664  0.0079  1.0000  -9.6105   0.0000   0.2692
  24.000   1.1492   0.21196   0.21055  -0.0757  0.0077  1.0000  -9.3144   0.0000   0.2768
  24.500   1.1430   0.22240   0.22106  -0.0844  0.0074  1.0000  -9.0626   0.0000   0.2838
  25.000   1.1420   0.23159   0.23029  -0.0923  0.0070  1.0000  -8.8839   0.0000   0.2898
  25.500   1.1405   0.24115   0.23993  -0.1005  0.0068  1.0000  -8.6394   0.0000   0.2961


