xflr5 v6.47

Plane name :        VTOL_SINGLE_VTAIL_NACA_LAST
Polar name :        T1-30.0 m/s-VLM1_vtail_dihedral
Freestream speed :  30.000 m/s


   alpha      Beta       CL          CDi        CDv        CD         CY         Cl         Cm         Cn        Cni       QInf        XCP
  -10.000     0.000  -0.731142   0.024040   0.016510   0.040551   0.000000   0.000000  -0.564166   0.000000   0.000000   30.0000     0.0740
   -9.500     0.000  -0.695270   0.021744   0.015785   0.037529   0.000000   0.000000  -0.533608   0.000000   0.000000   30.0000     0.0740
   -9.000     0.000  -0.659290   0.019555   0.015112   0.034667   0.000000   0.000000  -0.503212   0.000000   0.000000   30.0000     0.0740
   -8.500     0.000  -0.623208   0.017476   0.014477   0.031954   0.000000   0.000000  -0.472998   0.000000   0.000000   30.0000     0.0739
   -8.000     0.000  -0.587028   0.015509   0.013897   0.029406   0.000000   0.000000  -0.442967   0.000000   0.000000   30.0000     0.0739
   -7.500     0.000  -0.550758   0.013653   0.013357   0.027010   0.000000   0.000000  -0.413121   0.000000   0.000000   30.0000     0.0739
   -7.000     0.000  -0.514402   0.011912   0.012825   0.024736   0.000000   0.000000  -0.383493   0.000000   0.000000   30.0000     0.0738
   -6.500     0.000  -0.477966   0.010285   0.012309   0.022593   0.000000   0.000000  -0.354068   0.000000   0.000000   30.0000     0.0738
   -6.000     0.000  -0.441456   0.008774   0.011792   0.020566   0.000000   0.000000  -0.324875   0.000000   0.000000   30.0000     0.0738
   -5.500     0.000  -0.404879   0.007381   0.011248   0.018629   0.000000   0.000000  -0.295901   0.000000   0.000000   30.0000     0.0738
   -5.000     0.000  -0.368239   0.006106   0.010696   0.016802   0.000000   0.000000  -0.267115   0.000000   0.000000   30.0000     0.0738
   -4.500     0.000  -0.331543   0.004950   0.010237   0.015186   0.000000   0.000000  -0.238515   0.000000   0.000000   30.0000     0.0738
   -4.000     0.000  -0.294797   0.003913   0.009938   0.013852   0.000000   0.000000  -0.210151   0.000000   0.000000   30.0000     0.0738
   -3.500     0.000  -0.258006   0.002998   0.009714   0.012712   0.000000   0.000000  -0.182063   0.000000   0.000000   30.0000     0.0738
   -3.000     0.000  -0.221177   0.002203   0.009511   0.011714   0.000000   0.000000  -0.154248   0.000000   0.000000   30.0000     0.0738
   -2.500     0.000  -0.184316   0.001530   0.009362   0.010892   0.000000   0.000000  -0.126710   0.000000   0.000000   30.0000     0.0738
   -2.000     0.000  -0.147429   0.000979   0.009236   0.010215   0.000000   0.000000  -0.099470   0.000000   0.000000   30.0000     0.0739
   -1.500     0.000  -0.110521   0.000550   0.009135   0.009685   0.000000   0.000000  -0.072522   0.000000   0.000000   30.0000     0.0740
   -1.000     0.000  -0.073598   0.000244   0.009093   0.009337   0.000000   0.000000  -0.045865   0.000000   0.000000   30.0000     0.0741
   -0.500     0.000  -0.036668   0.000061   0.009079   0.009139   0.000000   0.000000  -0.019524   0.000000   0.000000   30.0000     0.0747
    0.000     0.000   0.000265   0.000000   0.009094   0.009094  -0.000000  -0.000000   0.006500   0.000000  -0.000000   30.0000    -0.0748
    0.500     0.000   0.037194   0.000062   0.009079   0.009141  -0.000000  -0.000000   0.032131   0.000000  -0.000000   30.0000     0.0726
    1.000     0.000   0.074114   0.000247   0.009093   0.009340  -0.000000  -0.000000   0.057430   0.000000  -0.000000   30.0000     0.0731
    1.500     0.000   0.111017   0.000554   0.009136   0.009689  -0.000000  -0.000000   0.082383   0.000000  -0.000000   30.0000     0.0733
    2.000     0.000   0.147899   0.000983   0.009236   0.010219  -0.000000  -0.000000   0.107001   0.000000  -0.000000   30.0000     0.0734
    2.500     0.000   0.184753   0.001533   0.009361   0.010895  -0.000000  -0.000000   0.131269   0.000000  -0.000000   30.0000     0.0734
    3.000     0.000   0.221573   0.002205   0.009510   0.011715  -0.000000  -0.000000   0.155166   0.000000  -0.000000   30.0000     0.0735
    3.500     0.000   0.258354   0.002997   0.009710   0.012707  -0.000000  -0.000000   0.178699   0.000000  -0.000000   30.0000     0.0735
    4.000     0.000   0.295089   0.003909   0.009933   0.013842  -0.000000  -0.000000   0.201858   0.000000  -0.000000   30.0000     0.0736
    4.500     0.000   0.331772   0.004940   0.010236   0.015176  -0.000000  -0.000000   0.224638   0.000000  -0.000000   30.0000     0.0736
    5.000     0.000   0.368397   0.006089   0.010691   0.016779  -0.000000  -0.000000   0.247064   0.000000  -0.000000   30.0000     0.0737
    5.500     0.000   0.404960   0.007355   0.011232   0.018587  -0.000000  -0.000000   0.269164   0.000000  -0.000000   30.0000     0.0737
    6.000     0.000   0.441452   0.008737   0.011769   0.020506  -0.000000  -0.000000   0.290917   0.000000  -0.000000   30.0000     0.0737
    6.500     0.000   0.477870   0.010234   0.012275   0.022509  -0.000000  -0.000000   0.312262   0.000000  -0.000000   30.0000     0.0738
    7.000     0.000   0.514207   0.011844   0.012765   0.024609  -0.000000  -0.000000   0.333174   0.000000  -0.000000   30.0000     0.0738
    7.500     0.000   0.550458   0.013567   0.013271   0.026839  -0.000000  -0.000000   0.353682   0.000000  -0.000000   30.0000     0.0738
    8.000     0.000   0.586616   0.015401   0.013803   0.029204  -0.000000  -0.000000   0.373758   0.000000  -0.000000   30.0000     0.0739
    8.500     0.000   0.622676   0.017344   0.014363   0.031708  -0.000000  -0.000000   0.393407   0.000000  -0.000000   30.0000     0.0739
    9.000     0.000   0.658632   0.019395   0.014957   0.034353  -0.000000  -0.000000   0.412637   0.000000  -0.000000   30.0000     0.0740
    9.500     0.000   0.694480   0.021553   0.015594   0.037147  -0.000000  -0.000000   0.431428   0.000000  -0.000000   30.0000     0.0740
   10.000     0.000   0.730212   0.023814   0.016272   0.040086  -0.000000  -0.000000   0.449786   0.000000  -0.000000   30.0000     0.0741
   10.500     0.000   0.765824   0.026179   0.017016   0.043194  -0.000000  -0.000000   0.467720   0.000000  -0.000000   30.0000     0.0741
   11.000     0.000   0.801311   0.028644   0.017832   0.046476  -0.000000  -0.000000   0.485227   0.000000  -0.000000   30.0000     0.0742
   11.500     0.000   0.836667   0.031207   0.018790   0.049998  -0.000000  -0.000000   0.502352   0.000000  -0.000000   30.0000     0.0742
   12.000     0.000   0.871886   0.033868   0.019814   0.053682  -0.000000  -0.000000   0.519066   0.000000  -0.000000   30.0000     0.0743
   12.500     0.000   0.906964   0.036623   0.021119   0.057741  -0.000000  -0.000000   0.535376   0.000000  -0.000000   30.0000     0.0743
   13.000     0.000   0.941896   0.039470   0.022610   0.062080  -0.000000  -0.000000   0.551393   0.000000  -0.000000   30.0000     0.0744
   13.500     0.000   0.976675   0.042407   0.024029   0.066436  -0.000000  -0.000000   0.566924   0.000000  -0.000000   30.0000     0.0744
   14.000     0.000   1.011297   0.045432   0.025809   0.071240  -0.000000  -0.000000   0.582104   0.000000  -0.000000   30.0000     0.0745
   14.500     0.000   1.045758   0.048542   0.028070   0.076612  -0.000000  -0.000000   0.597077   0.000000  -0.000000   30.0000     0.0746
   15.000     0.000   1.080052   0.051735   0.031425   0.083160  -0.000000  -0.000000   0.612251   0.000000  -0.000000   30.0000     0.0746
   15.500     0.000   1.114174   0.055008   0.143270   0.198278  -0.000000  -0.000000   0.683521   0.000000  -0.000000   30.0000     0.0747


