xflr5 v6.47

Plane name :        VTOL_SINGLE_VTAIL_NACA_LAST
Polar name :        T1-30.0 m/s-Panel_vtail_dihedral
Freestream speed :  30.000 m/s


   alpha      Beta       CL          CDi        CDv        CD         CY         Cl         Cm         Cn        Cni       QInf        XCP
   -8.000     0.000  -0.609286   0.018572   0.014311   0.032883   0.000232   0.000262  -0.452762   0.000065   0.000064   30.0000     0.0726
   -7.500     0.000  -0.570074   0.016179   0.013707   0.029886   0.000218   0.000236  -0.422841   0.000059   0.000058   30.0000     0.0728
   -7.000     0.000  -0.530901   0.013961   0.013129   0.027090   0.000203   0.000211  -0.393034   0.000053   0.000052   30.0000     0.0729
   -6.500     0.000  -0.491774   0.011918   0.012578   0.024496   0.000189   0.000188  -0.363322   0.000048   0.000047   30.0000     0.0730
   -6.000     0.000  -0.452701   0.010047   0.012025   0.022072   0.000174   0.000166  -0.333738   0.000043   0.000043   30.0000     0.0732
   -5.500     0.000  -0.413690   0.008344   0.011465   0.019809   0.000160   0.000145  -0.304263   0.000039   0.000039   30.0000     0.0733
   -5.000     0.000  -0.374747   0.006809   0.010888   0.017697   0.000145   0.000126  -0.274866   0.000035   0.000035   30.0000     0.0734
   -4.500     0.000  -0.335880   0.005439   0.010411   0.015849   0.000131   0.000107  -0.245544   0.000031   0.000031   30.0000     0.0735
   -4.000     0.000  -0.297097   0.004230   0.010097   0.014326   0.000116   0.000090  -0.216357   0.000028   0.000028   30.0000     0.0736
   -3.500     0.000  -0.258403   0.003179   0.009853   0.013033   0.000102   0.000075  -0.187340   0.000025   0.000024   30.0000     0.0737
   -3.000     0.000  -0.219808   0.002285   0.009643   0.011928   0.000087   0.000061  -0.158489   0.000022   0.000021   30.0000     0.0738
   -2.500     0.000  -0.181317   0.001544   0.009498   0.011042   0.000073   0.000048  -0.129811   0.000019   0.000019   30.0000     0.0739
   -2.000     0.000  -0.142937   0.000953   0.009372   0.010325   0.000059   0.000036  -0.101323   0.000016   0.000016   30.0000     0.0739
   -1.500     0.000  -0.104675   0.000508   0.009273   0.009781   0.000044   0.000026  -0.073021   0.000013   0.000013   30.0000     0.0740
   -1.000     0.000  -0.066538   0.000206   0.009242   0.009448   0.000030   0.000017  -0.044904   0.000011   0.000011   30.0000     0.0739
   -0.500     0.000  -0.028533   0.000044   0.009239   0.009282   0.000016   0.000009  -0.016998   0.000008   0.000008   30.0000     0.0734
    0.000     0.000   0.009334   0.000018   0.009258   0.009275   0.000002   0.000003   0.010692   0.000005   0.000005   30.0000     0.0777
    0.500     0.000   0.047057   0.000124   0.009244   0.009367  -0.000013  -0.000002   0.038092   0.000003   0.000003   30.0000     0.0752
    1.000     0.000   0.084629   0.000358   0.009268   0.009626  -0.000027  -0.000006   0.065266   0.000000   0.000000   30.0000     0.0750
    1.500     0.000   0.122045   0.000717   0.009331   0.010048  -0.000041  -0.000008   0.092198  -0.000003  -0.000003   30.0000     0.0749
    2.000     0.000   0.159297   0.001197   0.009436   0.010633  -0.000055  -0.000009   0.118895  -0.000006  -0.000006   30.0000     0.0750
    2.500     0.000   0.196381   0.001793   0.009565   0.011357  -0.000068  -0.000009   0.145342  -0.000009  -0.000009   30.0000     0.0750
    3.000     0.000   0.233290   0.002501   0.009736   0.012237  -0.000082  -0.000007   0.171520  -0.000012  -0.000012   30.0000     0.0750
    3.500     0.000   0.270018   0.003317   0.009941   0.013258  -0.000096  -0.000004   0.197435  -0.000016  -0.000016   30.0000     0.0750
    4.000     0.000   0.306561   0.004237   0.010164   0.014400  -0.000110   0.000000   0.223073  -0.000020  -0.000020   30.0000     0.0751
    4.500     0.000   0.342912   0.005256   0.010523   0.015779  -0.000123   0.000006   0.248435  -0.000024  -0.000024   30.0000     0.0751
    5.000     0.000   0.379067   0.006369   0.010978   0.017348  -0.000137   0.000013   0.273545  -0.000029  -0.000029   30.0000     0.0751
    5.500     0.000   0.415019   0.007573   0.011504   0.019077  -0.000150   0.000021   0.298427  -0.000033  -0.000034   30.0000     0.0751
    6.000     0.000   0.450765   0.008862   0.012021   0.020883  -0.000163   0.000030   0.323050  -0.000039  -0.000040   30.0000     0.0752
    6.500     0.000   0.486299   0.010232   0.012521   0.022753  -0.000176   0.000041   0.347361  -0.000045  -0.000045   30.0000     0.0752
    7.000     0.000   0.521616   0.011678   0.013006   0.024683  -0.000189   0.000053   0.371337  -0.000051  -0.000052   30.0000     0.0752
    7.500     0.000   0.556712   0.013195   0.013504   0.026699  -0.000202   0.000066   0.394999  -0.000058  -0.000059   30.0000     0.0752
    8.000     0.000   0.591582   0.014778   0.014030   0.028808  -0.000215   0.000080   0.418322  -0.000065  -0.000066   30.0000     0.0752
    8.500     0.000   0.626223   0.016422   0.014586   0.031008  -0.000228   0.000096   0.441314  -0.000073  -0.000075   30.0000     0.0752
    9.000     0.000   0.660628   0.018123   0.015170   0.033293  -0.000241   0.000113   0.463972  -0.000082  -0.000083   30.0000     0.0752
    9.500     0.000   0.694796   0.019875   0.015790   0.035665  -0.000253   0.000131   0.486280  -0.000091  -0.000093   30.0000     0.0752
   10.000     0.000   0.728721   0.021673   0.016454   0.038126  -0.000265   0.000150   0.508247  -0.000101  -0.000103   30.0000     0.0751
   10.500     0.000   0.762400   0.023512   0.017175   0.040687  -0.000277   0.000170   0.529875  -0.000112  -0.000113   30.0000     0.0751
   11.000     0.000   0.795830   0.025387   0.017959   0.043346  -0.000290   0.000191   0.551165  -0.000123  -0.000125   30.0000     0.0751
   11.500     0.000   0.829006   0.027293   0.018885   0.046178  -0.000301   0.000213   0.572165  -0.000134  -0.000137   30.0000     0.0750
   12.000     0.000   0.861926   0.029224   0.019896   0.049120  -0.000313   0.000237   0.592834  -0.000148  -0.000150   30.0000     0.0750
   12.500     0.000   0.894586   0.031175   0.021013   0.052188  -0.000325   0.000261   0.613154  -0.000161  -0.000164   30.0000     0.0749
   13.000     0.000   0.926983   0.033142   0.022476   0.055618  -0.000336   0.000286   0.633309  -0.000174  -0.000179   30.0000     0.0749
   13.500     0.000   0.959116   0.035119   0.023862   0.058981  -0.000348   0.000313   0.653046  -0.000191  -0.000194   30.0000     0.0748
   14.000     0.000   0.990979   0.037100   0.025401   0.062501  -0.000359   0.000340   0.672455  -0.000206  -0.000211   30.0000     0.0748
   14.500     0.000   1.022573   0.039080   0.027376   0.066457  -0.000370   0.000368   0.691764  -0.000222  -0.000228   30.0000     0.0747
   15.000     0.000   1.053893   0.041055   0.030301   0.071355  -0.000380   0.000398   0.711533  -0.000236  -0.000247   30.0000     0.0746
   15.500     0.000   1.084937   0.043018   0.079438   0.122456  -0.000391   0.000428   0.772280  -0.000255  -0.000266   30.0000     0.0745


