xflr5 v6.47

Plane name :        VTOL_SINGLE_VTAIL_NACA_LAST_PROJECTED_NO_CENTER_SECTION
Polar name :        T1-30.0 m/s-VLM2_vtail_projected_no_center-x0.08m
Freestream speed :  30.000 m/s


   alpha      Beta       CL          CDi        CDv        CD         CY         Cl         Cm         Cn        Cni       QInf        XCP
  -10.000     0.000  -0.815694   0.026885   0.017883   0.044768  -0.000000   0.000000   0.001557   0.000000   0.000000   30.0000     0.0799
   -9.500     0.000  -0.775346   0.024315   0.016882   0.041197  -0.000000  -0.000000   0.001534  -0.000000  -0.000000   30.0000     0.0800
   -9.000     0.000  -0.734888   0.021868   0.016067   0.037935  -0.000000   0.000000   0.001492   0.000000   0.000000   30.0000     0.0801
   -8.500     0.000  -0.694328   0.019543   0.015338   0.034881  -0.000000   0.000000   0.001439   0.000000  -0.000000   30.0000     0.0802
   -8.000     0.000  -0.653680   0.017343   0.014733   0.032076  -0.000000  -0.000000   0.001373  -0.000000   0.000000   30.0000     0.0803
   -7.500     0.000  -0.612953   0.015269   0.014146   0.029415  -0.000000   0.000000   0.001301   0.000000  -0.000000   30.0000     0.0803
   -7.000     0.000  -0.572160   0.013323   0.013536   0.026859  -0.000000   0.000000   0.001225   0.000000  -0.000000   30.0000     0.0804
   -6.500     0.000  -0.531310   0.011505   0.012877   0.024382  -0.000000   0.000000   0.001148   0.000000   0.000000   30.0000     0.0805
   -6.000     0.000  -0.490417   0.009817   0.012206   0.022023  -0.000000  -0.000000   0.001067  -0.000000  -0.000000   30.0000     0.0806
   -5.500     0.000  -0.449489   0.008260   0.011543   0.019803  -0.000000  -0.000000   0.000980  -0.000000  -0.000000   30.0000     0.0807
   -5.000     0.000  -0.408540   0.006835   0.010683   0.017518  -0.000000  -0.000000   0.000898  -0.000000  -0.000000   30.0000     0.0808
   -4.500     0.000  -0.367580   0.005543   0.009859   0.015402  -0.000000  -0.000000   0.000808  -0.000000  -0.000000   30.0000     0.0809
   -4.000     0.000  -0.326620   0.004384   0.009273   0.013657  -0.000000  -0.000000   0.000704  -0.000000   0.000000   30.0000     0.0810
   -3.500     0.000  -0.285671   0.003360   0.009089   0.012449  -0.000000  -0.000000   0.000583  -0.000000  -0.000000   30.0000     0.0810
   -3.000     0.000  -0.244746   0.002471   0.008942   0.011414  -0.000000   0.000000   0.000458  -0.000000  -0.000000   30.0000     0.0811
   -2.500     0.000  -0.203854   0.001718   0.008863   0.010581  -0.000000  -0.000000   0.000332  -0.000000   0.000000   30.0000     0.0812
   -2.000     0.000  -0.163007   0.001101   0.008845   0.009946  -0.000000  -0.000000   0.000203  -0.000000   0.000000   30.0000     0.0812
   -1.500     0.000  -0.122217   0.000620   0.008843   0.009463  -0.000000   0.000000   0.000074   0.000000   0.000000   30.0000     0.0812
   -1.000     0.000  -0.081494   0.000276   0.008899   0.009176  -0.000000   0.000000  -0.000055  -0.000000  -0.000000   30.0000     0.0811
   -0.500     0.000  -0.040850   0.000070   0.008978   0.009047  -0.000000   0.000000  -0.000184   0.000000  -0.000000   30.0000     0.0805
    0.000     0.000  -0.000295   0.000000   0.009059   0.009059   0.000000  -0.000000  -0.000313   0.000000  -0.000000   30.0000    -0.0992
    0.500     0.000   0.040159   0.000068   0.008979   0.009046  -0.000000  -0.000000  -0.000441   0.000000  -0.000000   30.0000     0.0834
    1.000     0.000   0.080501   0.000272   0.008900   0.009173  -0.000000   0.000000  -0.000569   0.000000  -0.000000   30.0000     0.0828
    1.500     0.000   0.120720   0.000614   0.008843   0.009457  -0.000000   0.000000  -0.000697   0.000000   0.000000   30.0000     0.0827
    2.000     0.000   0.160805   0.001093   0.008845   0.009938  -0.000000   0.000000  -0.000825  -0.000000   0.000000   30.0000     0.0827
    2.500     0.000   0.200746   0.001708   0.008862   0.010570  -0.000000   0.000000  -0.000951   0.000000  -0.000000   30.0000     0.0827
    3.000     0.000   0.240530   0.002460   0.008940   0.011400  -0.000000  -0.000000  -0.001076   0.000000  -0.000000   30.0000     0.0828
    3.500     0.000   0.280148   0.003347   0.009096   0.012443  -0.000000  -0.000000  -0.001197  -0.000000  -0.000000   30.0000     0.0828
    4.000     0.000   0.319588   0.004369   0.009304   0.013672  -0.000000   0.000000  -0.001315  -0.000000  -0.000000   30.0000     0.0829
    4.500     0.000   0.358840   0.005525   0.009905   0.015430  -0.000000   0.000000  -0.001416  -0.000000  -0.000000   30.0000     0.0830
    5.000     0.000   0.397893   0.006815   0.010741   0.017556  -0.000000  -0.000000  -0.001502  -0.000000   0.000000   30.0000     0.0831
    5.500     0.000   0.436736   0.008238   0.011593   0.019831  -0.000000  -0.000000  -0.001580   0.000000   0.000000   30.0000     0.0832
    6.000     0.000   0.475358   0.009793   0.012244   0.022037  -0.000000   0.000000  -0.001663  -0.000000   0.000000   30.0000     0.0833
    6.500     0.000   0.513749   0.011479   0.012902   0.024381  -0.000000  -0.000000  -0.001740   0.000000   0.000000   30.0000     0.0834
    7.000     0.000   0.551898   0.013295   0.013549   0.026844  -0.000000  -0.000000  -0.001813   0.000000   0.000000   30.0000     0.0835
    7.500     0.000   0.589795   0.015240   0.014145   0.029385  -0.000000  -0.000000  -0.001883   0.000000   0.000000   30.0000     0.0836
    8.000     0.000   0.627429   0.017312   0.014726   0.032037  -0.000000  -0.000000  -0.001949   0.000000   0.000000   30.0000     0.0837
    8.500     0.000   0.664790   0.019510   0.015334   0.034844  -0.000000  -0.000000  -0.002009   0.000000   0.000000   30.0000     0.0838
    9.000     0.000   0.701868   0.021833   0.016051   0.037883  -0.000000  -0.000000  -0.002056  -0.000000  -0.000000   30.0000     0.0839
    9.500     0.000   0.738652   0.024279   0.016845   0.041124  -0.000000  -0.000000  -0.002093   0.000000   0.000000   30.0000     0.0840
   10.000     0.000   0.775133   0.026846   0.017829   0.044676  -0.000000  -0.000000  -0.002110   0.000000  -0.000000   30.0000     0.0841
   10.500     0.000   0.811299   0.029534   0.019111   0.048645  -0.000000  -0.000000  -0.002094   0.000000   0.000000   30.0000     0.0842
   11.000     0.000   0.847142   0.032340   0.020574   0.052913  -0.000000  -0.000000  -0.002055   0.000000  -0.000000   30.0000     0.0844
   11.500     0.000   0.882650   0.035262   0.022331   0.057593  -0.000000  -0.000000  -0.001980   0.000000   0.000000   30.0000     0.0845
   12.000     0.000   0.917815   0.038299   0.024509   0.062808  -0.000000  -0.000000  -0.001852   0.000000   0.000000   30.0000     0.0846
   12.500     0.000   0.952626   0.041448   0.027522   0.068971  -0.000000   0.000000  -0.001640  -0.000000   0.000000   30.0000     0.0847
   13.000     0.000   0.987074   0.044708   0.119829   0.164537  -0.000000   0.000000   0.006338  -0.000000  -0.000000   30.0000     0.0848
   13.500     0.000   1.021149   0.048077   0.220382   0.268459  -0.000000   0.000000   0.016921  -0.000000   0.000000   30.0000     0.0849
   14.000     0.000   1.054841   0.051551   0.274108   0.325659  -0.000000  -0.000000   0.023104   0.000000   0.000000   30.0000     0.0851
   14.500     0.000   1.088142   0.055130   0.319006   0.374136  -0.000000   0.000000   0.029285  -0.000000   0.000000   30.0000     0.0852


