xflr5 v6.47

Plane name :        VTOL_SINGLE_VTAIL_NACA_LAST_PROJECTED
Polar name :        T1-30.0 m/s-Panel_vtail_projected
Freestream speed :  30.000 m/s


   alpha      Beta       CL          CDi        CDv        CD         CY         Cl         Cm         Cn        Cni       QInf        XCP
  -10.000     0.000  -0.872904   0.027946   0.017740   0.045687   0.000000   0.000107  -0.624516  -0.000033  -0.000036   30.0000     0.0762
   -9.500     0.000  -0.830119   0.025284   0.016616   0.041900   0.000000   0.000103  -0.594298  -0.000029  -0.000032   30.0000     0.0763
   -9.000     0.000  -0.787203   0.022746   0.015608   0.038354   0.000000   0.000098  -0.563929  -0.000027  -0.000029   30.0000     0.0764
   -8.500     0.000  -0.744162   0.020334   0.014743   0.035077   0.000000   0.000093  -0.533418  -0.000025  -0.000026   30.0000     0.0765
   -8.000     0.000  -0.701002   0.018050   0.013974   0.032024   0.000000   0.000088  -0.502768  -0.000022  -0.000023   30.0000     0.0765
   -7.500     0.000  -0.657731   0.015896   0.013280   0.029176   0.000000   0.000083  -0.471984  -0.000020  -0.000021   30.0000     0.0766
   -7.000     0.000  -0.614354   0.013872   0.012638   0.026510   0.000000   0.000078  -0.441074  -0.000017  -0.000018   30.0000     0.0767
   -6.500     0.000  -0.570880   0.011982   0.012044   0.024026   0.000000   0.000073  -0.410044  -0.000015  -0.000016   30.0000     0.0768
   -6.000     0.000  -0.527314   0.010225   0.011490   0.021716   0.000000   0.000068  -0.378902  -0.000013  -0.000014   30.0000     0.0768
   -5.500     0.000  -0.483664   0.008604   0.010937   0.019541   0.000000   0.000063  -0.347656  -0.000011  -0.000011   30.0000     0.0769
   -5.000     0.000  -0.439936   0.007120   0.010394   0.017514   0.000000   0.000057  -0.316314  -0.000009  -0.000009   30.0000     0.0769
   -4.500     0.000  -0.396138   0.005774   0.009770   0.015545   0.000000   0.000052  -0.284881  -0.000007  -0.000008   30.0000     0.0770
   -4.000     0.000  -0.352276   0.004567   0.009246   0.013813   0.000000   0.000046  -0.253377  -0.000005  -0.000006   30.0000     0.0770
   -3.500     0.000  -0.308358   0.003500   0.008939   0.012439   0.000000   0.000041  -0.221815  -0.000004  -0.000004   30.0000     0.0771
   -3.000     0.000  -0.264389   0.002573   0.008710   0.011283   0.000000   0.000035  -0.190197  -0.000003  -0.000003   30.0000     0.0771
   -2.500     0.000  -0.220379   0.001788   0.008503   0.010291   0.000000   0.000029  -0.158528  -0.000001  -0.000001   30.0000     0.0771
   -2.000     0.000  -0.176332   0.001145   0.008365   0.009510   0.000000   0.000024  -0.126819  -0.000000  -0.000000   30.0000     0.0772
   -1.500     0.000  -0.132258   0.000644   0.008241   0.008885   0.000000   0.000018  -0.095077   0.000001   0.000001   30.0000     0.0772
   -1.000     0.000  -0.088162   0.000286   0.008168   0.008454   0.000000   0.000012  -0.063312   0.000002   0.000002   30.0000     0.0772
   -0.500     0.000  -0.044052   0.000071   0.008144   0.008215   0.000000   0.000005  -0.031533   0.000003   0.000003   30.0000     0.0773
    0.000     0.000   0.000066   0.000000   0.008160   0.008160  -0.000000  -0.000001   0.000251   0.000004   0.000004   30.0000    -0.0096
    0.500     0.000   0.044183   0.000072   0.008144   0.008215  -0.000000  -0.000007   0.032032   0.000004   0.000004   30.0000     0.0770
    1.000     0.000   0.088293   0.000287   0.008168   0.008455  -0.000000  -0.000014   0.063800   0.000005   0.000005   30.0000     0.0771
    1.500     0.000   0.132389   0.000645   0.008241   0.008887  -0.000000  -0.000020   0.095546   0.000005   0.000005   30.0000     0.0771
    2.000     0.000   0.176463   0.001146   0.008365   0.009512  -0.000000  -0.000027   0.127262   0.000006   0.000006   30.0000     0.0771
    2.500     0.000   0.220510   0.001790   0.008503   0.010294  -0.000000  -0.000034   0.158937   0.000006   0.000006   30.0000     0.0771
    3.000     0.000   0.264520   0.002576   0.008711   0.011287  -0.000000  -0.000041   0.190564   0.000006   0.000006   30.0000     0.0770
    3.500     0.000   0.308488   0.003503   0.008944   0.012447  -0.000000  -0.000048   0.222134   0.000006   0.000006   30.0000     0.0770
    4.000     0.000   0.352407   0.004570   0.009260   0.013830  -0.000000  -0.000055   0.253640   0.000007   0.000006   30.0000     0.0770
    4.500     0.000   0.396268   0.005778   0.009793   0.015571  -0.000000  -0.000063   0.285081   0.000007   0.000006   30.0000     0.0769
    5.000     0.000   0.440067   0.007124   0.010421   0.017545  -0.000000  -0.000070   0.316444   0.000007   0.000006   30.0000     0.0769
    5.500     0.000   0.483794   0.008609   0.010960   0.019569  -0.000000  -0.000078   0.347707   0.000006   0.000006   30.0000     0.0768
    6.000     0.000   0.527444   0.010230   0.011501   0.021731  -0.000000  -0.000085   0.378867   0.000006   0.000005   30.0000     0.0768
    6.500     0.000   0.571010   0.011987   0.012045   0.024032  -0.000000  -0.000093   0.409914   0.000006   0.000005   30.0000     0.0767
    7.000     0.000   0.614484   0.013878   0.012655   0.026533  -0.000000  -0.000101   0.440845   0.000006   0.000005   30.0000     0.0766
    7.500     0.000   0.657860   0.015901   0.013294   0.029195  -0.000000  -0.000109   0.471648   0.000005   0.000004   30.0000     0.0766
    8.000     0.000   0.701131   0.018056   0.013981   0.032037  -0.000000  -0.000118   0.502316   0.000005   0.000004   30.0000     0.0765
    8.500     0.000   0.744290   0.020341   0.014747   0.035088  -0.000000  -0.000126   0.532844   0.000005   0.000003   30.0000     0.0764
    9.000     0.000   0.787331   0.022753   0.015610   0.038364  -0.000000  -0.000135   0.563226   0.000004   0.000002   30.0000     0.0763
    9.500     0.000   0.830247   0.025292   0.016619   0.041911  -0.000000  -0.000143   0.593458   0.000004   0.000002   30.0000     0.0762
   10.000     0.000   0.873031   0.027954   0.017743   0.045697  -0.000000  -0.000152   0.623532   0.000003   0.000001   30.0000     0.0761
   10.500     0.000   0.915678   0.030738   0.019152   0.049891  -0.000000  -0.000161   0.653461   0.000005  -0.000000   30.0000     0.0760
   11.000     0.000   0.958179   0.033643   0.020787   0.054429  -0.000000  -0.000170   0.683235   0.000003  -0.000001   30.0000     0.0759
   11.500     0.000   1.000529   0.036665   0.022517   0.059182  -0.000000  -0.000180   0.712829   0.000003  -0.000002   30.0000     0.0758
   12.000     0.000   1.042722   0.039802   0.025076   0.064878  -0.000000  -0.000189   0.742338   0.000008  -0.000003   30.0000     0.0757
   12.500     0.000   1.084752   0.043052   0.056952   0.100005  -0.000000  -0.000198   0.775633   0.000009  -0.000004   30.0000     0.0755


