xflr5 v6.47

Plane name :        VTOL_SINGLE_W1_BELL_LAST
Polar name :        T5-a0.0°-30.0m/s-Panel_wing_dihedral_beta

   alpha      Beta       CL          CDi        CDv        CD         CY         Cl         Cm         Cn        Cni       QInf        XCP
    0.000     0.000   0.351722   0.003212   0.016342   0.019553   0.000000   0.000000   0.167211  -0.000000  -0.000000   30.0000     0.0954
    0.000     0.500   0.351694   0.003212   0.016342   0.019553  -0.000094  -0.000373   0.167244  -0.000003   0.000009   30.0000     0.0953
    0.000     1.000   0.351609   0.003211   0.016342   0.019553  -0.000187  -0.000746   0.167342  -0.000006   0.000018   30.0000     0.0952
    0.000     1.500   0.351469   0.003210   0.016342   0.019552  -0.000281  -0.001118   0.167505  -0.000009   0.000027   30.0000     0.0950
    0.000     2.000   0.351273   0.003209   0.016342   0.019551  -0.000374  -0.001490   0.167734  -0.000012   0.000036   30.0000     0.0948
    0.000     2.500   0.351020   0.003208   0.016342   0.019550  -0.000467  -0.001861   0.168028  -0.000015   0.000045   30.0000     0.0945
    0.000     3.000   0.350712   0.003206   0.016342   0.019548  -0.000561  -0.002230   0.168386  -0.000018   0.000054   30.0000     0.0941
    0.000     3.500   0.350348   0.003204   0.016342   0.019546  -0.000654  -0.002599   0.168809  -0.000021   0.000063   30.0000     0.0937
    0.000     4.000   0.349928   0.003202   0.016342   0.019545  -0.000747  -0.002966   0.169295  -0.000024   0.000072   30.0000     0.0932
    0.000     4.500   0.349452   0.003200   0.016343   0.019543  -0.000840  -0.003331   0.169845  -0.000028   0.000081   30.0000     0.0926
    0.000     5.000   0.348921   0.003197   0.016344   0.019540  -0.000933  -0.003694   0.170458  -0.000031   0.000090   30.0000     0.0919
    0.000     5.500   0.348335   0.003194   0.016344   0.019538  -0.001026  -0.004055   0.171133  -0.000034   0.000100   30.0000     0.0912
    0.000     6.000   0.347694   0.003190   0.016345   0.019536  -0.001119  -0.004414   0.171870  -0.000037   0.000109   30.0000     0.0904
    0.000     6.500   0.346998   0.003187   0.016347   0.019533  -0.001211  -0.004771   0.172667  -0.000040   0.000118   30.0000     0.0896
    0.000     7.000   0.346247   0.003183   0.016348   0.019531  -0.001304  -0.005124   0.173525  -0.000044   0.000127   30.0000     0.0886
    0.000     7.500   0.345442   0.003178   0.016351   0.019529  -0.001396  -0.005475   0.174441  -0.000047   0.000136   30.0000     0.0876
    0.000     8.000   0.344582   0.003174   0.016353   0.019527  -0.001488  -0.005823   0.175416  -0.000051   0.000145   30.0000     0.0866
    0.000     8.500   0.343669   0.003169   0.016355   0.019524  -0.001579  -0.006167   0.176448  -0.000054   0.000154   30.0000     0.0854
    0.000     9.000   0.342702   0.003164   0.016357   0.019521  -0.001671  -0.006507   0.177536  -0.000057   0.000163   30.0000     0.0842
    0.000     9.500   0.341681   0.003158   0.016359   0.019517  -0.001762  -0.006844   0.178680  -0.000060   0.000172   30.0000     0.0829
    0.000    10.000   0.340608   0.003153   0.016360   0.019513  -0.001853  -0.007177   0.179877  -0.000063   0.000181   30.0000     0.0816
    0.000    10.500   0.339482   0.003147   0.016362   0.019509  -0.001944  -0.007506   0.181126  -0.000066   0.000190   30.0000     0.0802
    0.000    11.000   0.338304   0.003140   0.016364   0.019504  -0.002034  -0.007831   0.182428  -0.000069   0.000199   30.0000     0.0787
    0.000    11.500   0.337074   0.003134   0.016365   0.019499  -0.002124  -0.008151   0.183779  -0.000072   0.000207   30.0000     0.0771
    0.000    12.000   0.335792   0.003127   0.016366   0.019493  -0.002214  -0.008467   0.185178  -0.000075   0.000216   30.0000     0.0755
    0.000    12.500   0.334459   0.003120   0.016367   0.019487  -0.002304  -0.008777   0.186625  -0.000078   0.000225   30.0000     0.0738
    0.000    13.000   0.333076   0.003113   0.016369   0.019481  -0.002393  -0.009083   0.188118  -0.000081   0.000234   30.0000     0.0720
    0.000    13.500   0.331642   0.003105   0.016370   0.019475  -0.002482  -0.009384   0.189655  -0.000083   0.000243   30.0000     0.0702
    0.000    14.000   0.330158   0.003097   0.016371   0.019469  -0.002570  -0.009679   0.191235  -0.000086   0.000252   30.0000     0.0683
    0.000    14.500   0.328625   0.003089   0.016373   0.019462  -0.002658  -0.009969   0.192855  -0.000088   0.000261   30.0000     0.0663
    0.000    15.000   0.327043   0.003081   0.016374   0.019456  -0.002746  -0.010253   0.194515  -0.000091   0.000270   30.0000     0.0643
    0.000    15.500   0.325413   0.003073   0.016375   0.019448  -0.002833  -0.010532   0.196212  -0.000093   0.000279   30.0000     0.0621
    0.000    16.000   0.323735   0.003064   0.016376   0.019440  -0.002920  -0.010804   0.197946  -0.000095   0.000287   30.0000     0.0599
    0.000    16.500   0.322009   0.003055   0.016377   0.019432  -0.003006  -0.011071   0.199713  -0.000098   0.000296   30.0000     0.0577
    0.000    17.000   0.320237   0.003045   0.016378   0.019424  -0.003092  -0.011331   0.201512  -0.000100   0.000305   30.0000     0.0553
    0.000    17.500   0.318418   0.003036   0.016380   0.019416  -0.003178  -0.011585   0.203342  -0.000102   0.000314   30.0000     0.0529
    0.000    18.000   0.316554   0.003026   0.016382   0.019408  -0.003262  -0.011832   0.205200  -0.000104   0.000323   30.0000     0.0504
    0.000    18.500   0.314645   0.003016   0.016384   0.019401  -0.003347  -0.012073   0.207085  -0.000106   0.000331   30.0000     0.0478
    0.000    19.000   0.312691   0.003006   0.016387   0.019393  -0.003431  -0.012308   0.208994  -0.000109   0.000340   30.0000     0.0452
    0.000    19.500   0.310693   0.002996   0.016390   0.019385  -0.003514  -0.012535   0.210925  -0.000111   0.000349   30.0000     0.0425
    0.000    20.000   0.308652   0.002985   0.016392   0.019378  -0.003597  -0.012755   0.212877  -0.000113   0.000357   30.0000     0.0397
    0.000    20.500   0.306569   0.002975   0.016396   0.019370  -0.003679  -0.012969   0.214847  -0.000115   0.000366   30.0000     0.0368
    0.000    21.000   0.304443   0.002964   0.016399   0.019363  -0.003761  -0.013175   0.216833  -0.000117   0.000375   30.0000     0.0339
    0.000    21.500   0.302276   0.002952   0.016403   0.019355  -0.003842  -0.013374   0.218833  -0.000119   0.000383   30.0000     0.0309
    0.000    22.000   0.300069   0.002941   0.016406   0.019347  -0.003922  -0.013566   0.220844  -0.000121   0.000392   30.0000     0.0278
    0.000    22.500   0.297822   0.002930   0.016409   0.019339  -0.004002  -0.013750   0.222865  -0.000123   0.000400   30.0000     0.0246
    0.000    23.000   0.295535   0.002918   0.016412   0.019330  -0.004081  -0.013927   0.224894  -0.000124   0.000409   30.0000     0.0213
    0.000    23.500   0.293210   0.002906   0.016415   0.019321  -0.004160  -0.014097   0.226927  -0.000126   0.000417   30.0000     0.0180
    0.000    24.000   0.290848   0.002894   0.016418   0.019312  -0.004237  -0.014258   0.228963  -0.000127   0.000426   30.0000     0.0146
    0.000    24.500   0.288448   0.002882   0.016420   0.019302  -0.004314  -0.014412   0.231000  -0.000129   0.000434   30.0000     0.0111
    0.000    25.000   0.286012   0.002869   0.016423   0.019293  -0.004391  -0.014559   0.233035  -0.000130   0.000443   30.0000     0.0076
    0.000    25.500   0.283541   0.002857   0.016426   0.019283  -0.004466  -0.014697   0.235066  -0.000131   0.000451   30.0000     0.0039
    0.000    26.000   0.281035   0.002844   0.016429   0.019273  -0.004541  -0.014828   0.237090  -0.000133   0.000459   30.0000     0.0002
    0.000    26.500   0.278495   0.002831   0.016432   0.019263  -0.004615  -0.014951   0.239106  -0.000134   0.000467   30.0000    -0.0036
    0.000    27.000   0.275921   0.002818   0.016435   0.019254  -0.004689  -0.015066   0.241111  -0.000135   0.000476   30.0000    -0.0075
    0.000    27.500   0.273316   0.002805   0.016439   0.019244  -0.004761  -0.015173   0.243103  -0.000136   0.000484   30.0000    -0.0115
    0.000    28.000   0.270679   0.002792   0.016442   0.019234  -0.004833  -0.015272   0.245079  -0.000137   0.000492   30.0000    -0.0156
    0.000    28.500   0.268011   0.002778   0.016445   0.019224  -0.004904  -0.015363   0.247037  -0.000138   0.000500   30.0000    -0.0197
    0.000    29.000   0.265314   0.002765   0.016448   0.019213  -0.004974  -0.015446   0.248974  -0.000138   0.000508   30.0000    -0.0240
    0.000    29.500   0.262588   0.002751   0.016451   0.019202  -0.005043  -0.015521   0.250889  -0.000139   0.000516   30.0000    -0.0283
    0.000    30.000   0.259833   0.002737   0.016453   0.019190  -0.005111  -0.015588   0.252779  -0.000139   0.000524   30.0000    -0.0327


