xflr5 v6.33

Plane name :        EMERGENTIA_Sw1_e_dihedral
Polar name :        T1-25_0 m_s-LLT-proj_area_x0_010m
Freestream speed :  25.000 m/s


   alpha      Beta       CL          CDi        CDv        CD         CY         Cl         Cm         Cn        Cni       QInf        XCP
  -15.500     0.000  -0.568776   0.008905   0.053483   0.062388   0.000000  -0.000000  -0.023946   0.000000  -0.000000   25.0000    -0.0019
  -15.000     0.000  -0.516555   0.007371   0.047299   0.054670   0.000000  -0.000000  -0.043450   0.000000  -0.000000   25.0000    -0.0117
  -14.500     0.000  -0.498106   0.006855   0.041162   0.048017   0.000000   0.000000  -0.052337   0.000000   0.000000   25.0000    -0.0112
  -14.000     0.000  -0.465019   0.005980   0.038888   0.044868   0.000000   0.000000  -0.057423   0.000000   0.000000   25.0000    -0.0153
  -13.500     0.000  -0.430361   0.005114   0.037084   0.042198   0.000000   0.000000  -0.062292   0.000000  -0.000000   25.0000    -0.0201
  -13.000     0.000  -0.394773   0.004297   0.035543   0.039839   0.000000   0.000000  -0.067126   0.000000   0.000000   25.0000    -0.0258
  -12.500     0.000  -0.357216   0.003512   0.034214   0.037726   0.000000   0.000000  -0.072274   0.000000  -0.000000   25.0000    -0.0332
  -12.000     0.000  -0.314872   0.002741   0.033211   0.035951   0.000000   0.000000  -0.078225   0.000000   0.000000   25.0000    -0.0437
  -11.500     0.000  -0.277202   0.002130   0.032134   0.034264   0.000000   0.000000  -0.083410   0.000000   0.000000   25.0000    -0.0556
  -11.000     0.000  -0.247256   0.001839   0.030845   0.032684   0.000000  -0.000000  -0.086530  -0.000000  -0.000000   25.0000    -0.0666
  -10.500     0.000  -0.217726   0.001463   0.029575   0.031039   0.000000  -0.000000  -0.089977   0.000000  -0.000000   25.0000    -0.0807
  -10.000     0.000  -0.191856   0.001155   0.028214   0.029370   0.000000  -0.000000  -0.092741   0.000000  -0.000000   25.0000    -0.0960
   -9.500     0.000  -0.169412   0.000910   0.026753   0.027663   0.000000  -0.000000  -0.094779  -0.000000  -0.000000   25.0000    -0.1120
   -9.000     0.000  -0.149613   0.000734   0.025212   0.025946   0.000000   0.000000  -0.096137  -0.000000  -0.000000   25.0000    -0.1283
   -8.500     0.000  -0.140267   0.000870   0.023514   0.024384   0.000000  -0.000000  -0.094069   0.000000  -0.000000   25.0000    -0.1346
   -6.000     0.000  -0.207894   0.001178   0.014898   0.016075   0.000000  -0.000000  -0.035494   0.000000  -0.000000   25.0000    -0.0258
   -5.500     0.000  -0.178243   0.000855   0.015279   0.016134   0.000000   0.000000  -0.035581   0.000000   0.000000   25.0000    -0.0290
   -5.000     0.000  -0.131702   0.000468   0.016310   0.016778   0.000000   0.000000  -0.041972   0.000000  -0.000000   25.0000    -0.0197
   -4.500     0.000  -0.080919   0.000182   0.017525   0.017707   0.000000  -0.000000  -0.049986   0.000000  -0.000000   25.0000    -0.0684
   -4.000     0.000  -0.030894   0.000040   0.018695   0.018735   0.000000  -0.000000  -0.058030   0.000000  -0.000000   25.0000    -0.2271
   -3.500     0.000   0.018504   0.000035   0.019758   0.019793   0.000000  -0.000000  -0.066110   0.000000   0.000000   25.0000     0.3295
   -3.000     0.000   0.073340   0.000172   0.020647   0.020819   0.000000  -0.000000  -0.076711   0.000000   0.000000   25.0000     0.2694
   -2.500     0.000   0.120406   0.000418   0.021079   0.021497   0.000000  -0.000000  -0.085193   0.000000   0.000000   25.0000     0.1716
   -2.000     0.000   0.161242   0.000747   0.021203   0.021949   0.000000  -0.000000  -0.091929   0.000000   0.000000   25.0000     0.1331
   -1.500     0.000   0.199561   0.001130   0.021094   0.022224   0.000000  -0.000000  -0.098023   0.000000   0.000000   25.0000     0.1139
   -1.000     0.000   0.238922   0.001589   0.020920   0.022509   0.000000  -0.000000  -0.104638   0.000000   0.000000   25.0000     0.1000
   -0.500     0.000   0.282475   0.002183   0.020844   0.023027   0.000000  -0.000000  -0.112768   0.000000  -0.000000   25.0000     0.0904
    0.000     0.000   0.324094   0.002857   0.020720   0.023576   0.000000  -0.000000  -0.120672   0.000000  -0.000000   25.0000     0.0839
    0.500     0.000   0.359866   0.003535   0.020390   0.023924   0.000000  -0.000000  -0.126613   0.000000  -0.000000   25.0000     0.0789
    1.000     0.000   0.396382   0.004280   0.020082   0.024362   0.000000  -0.000000  -0.132959   0.000000  -0.000000   25.0000     0.0748
    1.500     0.000   0.436363   0.005168   0.019710   0.024878   0.000000  -0.000000  -0.140550   0.000000  -0.000000   25.0000     0.0714
    2.000     0.000   0.477110   0.006171   0.019481   0.025652   0.000000  -0.000000  -0.148669   0.000000   0.000000   25.0000     0.0687
    2.500     0.000   0.513751   0.007156   0.019117   0.026273   0.000000  -0.000000  -0.155071   0.000000   0.000000   25.0000     0.0661
    3.000     0.000   0.552666   0.008239   0.018729   0.026968   0.000000  -0.000000  -0.162391   0.000000  -0.000000   25.0000     0.0639
    3.500     0.000   0.592880   0.009492   0.018382   0.027875   0.000000  -0.000000  -0.170286   0.000000  -0.000000   25.0000     0.0620
    4.000     0.000   0.630006   0.010738   0.018047   0.028785   0.000000  -0.000000  -0.177005   0.000000  -0.000000   25.0000     0.0602
    4.500     0.000   0.666858   0.012046   0.017688   0.029734   0.000000  -0.000000  -0.183715   0.000000   0.000000   25.0000     0.0586
    5.000     0.000   0.701310   0.013331   0.017322   0.030653   0.000000  -0.000000  -0.189351   0.000000  -0.000000   25.0000     0.0570
    5.500     0.000   0.728044   0.014462   0.016954   0.031416   0.000000  -0.000000  -0.191745  -0.000000  -0.000000   25.0000     0.0552
    6.000     0.000   0.753672   0.015558   0.016599   0.032157   0.000000   0.000000  -0.193649   0.000000   0.000000   25.0000     0.0535
    6.500     0.000   0.773654   0.016484   0.016371   0.032855   0.000000  -0.000000  -0.193234   0.000000   0.000000   25.0000     0.0516
    7.000     0.000   0.793814   0.017443   0.016353   0.033796   0.000000  -0.000000  -0.193147   0.000000  -0.000000   25.0000     0.0498
    7.500     0.000   0.813607   0.018369   0.016524   0.034893   0.000000  -0.000000  -0.193281   0.000000  -0.000000   25.0000     0.0482
    8.000     0.000   0.836189   0.019457   0.016825   0.036281   0.000000  -0.000000  -0.195025   0.000000  -0.000000   25.0000     0.0469
    8.500     0.000   0.860278   0.020583   0.017296   0.037879   0.000000  -0.000000  -0.197893   0.000000   0.000000   25.0000     0.0458
    9.000     0.000   0.886057   0.021832   0.017942   0.039774   0.000000  -0.000000  -0.201924  -0.000000  -0.000000   25.0000     0.0449
    9.500     0.000   0.913440   0.023216   0.018747   0.041963   0.000000  -0.000000  -0.207124  -0.000000  -0.000000   25.0000     0.0443
   10.000     0.000   0.942294   0.024671   0.019698   0.044369   0.000000  -0.000000  -0.213434   0.000000   0.000000   25.0000     0.0438
   10.500     0.000   0.972512   0.026248   0.020794   0.047042   0.000000   0.000000  -0.220873   0.000000  -0.000000   25.0000     0.0435
   11.000     0.000   1.004179   0.028012   0.021992   0.050004   0.000000  -0.000000  -0.229324   0.000000   0.000000   25.0000     0.0433
   11.500     0.000   1.035462   0.029593   0.023371   0.052963   0.000000  -0.000000  -0.237950   0.000000   0.000000   25.0000     0.0431
   12.000     0.000   1.068465   0.031463   0.024896   0.056360   0.000000  -0.000000  -0.247884  -0.000000  -0.000000   25.0000     0.0431
   12.500     0.000   1.104135   0.033542   0.026497   0.060040   0.000000  -0.000000  -0.259301  -0.000000  -0.000000   25.0000     0.0432
   13.000     0.000   1.138477   0.035672   0.028264   0.063936   0.000000   0.000000  -0.270526  -0.000000  -0.000000   25.0000     0.0433
   13.500     0.000   1.169111   0.037644   0.030310   0.067954   0.000000  -0.000000  -0.280694   0.000000  -0.000000   25.0000     0.0434
   14.000     0.000   1.200179   0.039658   0.032290   0.071948   0.000000  -0.000000  -0.290839   0.000000   0.000000   25.0000     0.0434
   14.500     0.000   1.228032   0.041581   0.034602   0.076184   0.000000  -0.000000  -0.300244   0.000000  -0.000000   25.0000     0.0433
   15.000     0.000   1.259862   0.043754   0.036698   0.080451   0.000000  -0.000000  -0.311064  -0.000000  -0.000000   25.0000     0.0434
   15.500     0.000   1.286284   0.045703   0.039325   0.085028   0.000000  -0.000000  -0.320487  -0.000000  -0.000000   25.0000     0.0434
   16.000     0.000   1.315005   0.047826   0.041559   0.089384   0.000000  -0.000000  -0.330201  -0.000000  -0.000000   25.0000     0.0433
   16.500     0.000   1.336590   0.049568   0.044627   0.094196   0.000000  -0.000000  -0.338263   0.000000   0.000000   25.0000     0.0433
   17.000     0.000   1.361484   0.051448   0.047334   0.098782   0.000000  -0.000000  -0.347161   0.000000  -0.000000   25.0000     0.0432
   17.500     0.000   1.381667   0.053229   0.050718   0.103947   0.000000   0.000000  -0.355149  -0.000000  -0.000000   25.0000     0.0432
   18.000     0.000   1.410531   0.055447   0.053872   0.109319   0.000000  -0.000000  -0.366700  -0.000000  -0.000000   25.0000     0.0433
   18.500     0.000   1.432444   0.057360   0.057748   0.115108   0.000000  -0.000000  -0.375757  -0.000000  -0.000000   25.0000     0.0433
   19.000     0.000   1.450340   0.058948   0.061834   0.120782   0.000000  -0.000000  -0.383272   0.000000  -0.000000   25.0000     0.0432
   19.500     0.000   1.465247   0.060361   0.065822   0.126183   0.000000  -0.000000  -0.389687   0.000000   0.000000   25.0000     0.0431
   20.000     0.000   1.473730   0.061399   0.070493   0.131892   0.000000  -0.000000  -0.394160  -0.000000  -0.000000   25.0000     0.0430
   20.500     0.000   1.484437   0.062635   0.074672   0.137307   0.000000   0.000000  -0.399139   0.000000  -0.000000   25.0000     0.0428
   21.000     0.000   1.486688   0.063112   0.080036   0.143149   0.000000  -0.000000  -0.401992  -0.000000  -0.000000   25.0000     0.0427
   21.500     0.000   1.495324   0.063957   0.084483   0.148440   0.000000  -0.000000  -0.406502   0.000000  -0.000000   25.0000     0.0425
   22.000     0.000   1.491761   0.064233   0.090826   0.155059   0.000000   0.000000  -0.408232   0.000000  -0.000000   25.0000     0.0424
   22.500     0.000   1.491866   0.064525   0.096702   0.161227   0.000000   0.000000  -0.411061   0.000000  -0.000000   25.0000     0.0424
   23.000     0.000   1.487757   0.064520   0.103373   0.167894   0.000000   0.000000  -0.412876   0.000000  -0.000000   25.0000     0.0424


