xflr5 v6.33

 Calculated polar for: Bell A821201 v4

 1 1 Reynolds number fixed          Mach number fixed         

 xtrf =   1.000 (top)        1.000 (bottom)
 Mach =   0.000     Re =     4.800 e 6     Ncrit =   9.000

  alpha     CL        CD       CDp       Cm    Top Xtr Bot Xtr   Cpmin    Chinge    XCp    
 ------- -------- --------- --------- -------- ------- ------- -------- --------- ---------
 -27.500  -0.6948   0.21812   0.21685  -0.0169  0.9935  0.0086  -7.2044   0.0000   0.1503
 -27.000  -0.6478   0.22133   0.22015  -0.0167  0.9909  0.0085  -6.3996   0.0000   0.1486
 -26.500  -0.6235   0.22259   0.22145  -0.0149  0.9897  0.0085  -5.8933   0.0000   0.1515
 -26.000  -0.5960   0.22118   0.22008  -0.0171  0.9878  0.0084  -5.5219   0.0000   0.1471
 -25.500  -0.5672   0.21921   0.21813  -0.0202  0.9844  0.0084  -5.1691   0.0000   0.1402
 -25.000  -0.5264   0.21648   0.21461  -0.0262  0.7951  0.0084  -4.7312   0.0000   0.1248
 -24.500  -0.4981   0.21478   0.21283  -0.0290  0.7680  0.0085  -4.3575   0.0000   0.1159
 -24.000  -0.4715   0.21209   0.20982  -0.0326  0.6806  0.0086  -4.0411   0.0000   0.1045
 -23.500  -0.4477   0.20866   0.20623  -0.0362  0.6342  0.0087  -3.7948   0.0000   0.0920
 -23.000  -0.4254   0.20502   0.20252  -0.0397  0.6176  0.0088  -3.5757   0.0000   0.0790
 -22.500  -0.4035   0.20136   0.19884  -0.0430  0.6067  0.0090  -3.3617   0.0000   0.0648
 -22.000  -0.3810   0.19779   0.19523  -0.0463  0.5979  0.0091  -3.1420   0.0000   0.0488
 -19.500  -1.0143   0.05494   0.05035  -0.1083  0.6160  0.0098  -10.0706   0.0000   0.1023
 -19.000  -1.0044   0.05079   0.04611  -0.1091  0.6065  0.0098  -9.8401   0.0000   0.1017
 -18.500  -0.9901   0.04716   0.04237  -0.1096  0.5975  0.0099  -9.5827   0.0000   0.1007
 -18.000  -0.9724   0.04400   0.03913  -0.1099  0.5880  0.0099  -9.3046   0.0000   0.0994
 -17.500  -0.9557   0.04081   0.03587  -0.1100  0.5854  0.0100  -9.0333   0.0000   0.0984
 -17.000  -0.9333   0.03823   0.03322  -0.1098  0.5818  0.0100  -8.7318   0.0000   0.0967
 -16.500  -0.9123   0.03557   0.03049  -0.1096  0.5776  0.0100  -8.4410   0.0000   0.0951
 -16.000  -0.8863   0.03336   0.02821  -0.1093  0.5717  0.0101  -8.1267   0.0000   0.0926
 -15.500  -0.8619   0.03106   0.02585  -0.1089  0.5664  0.0101  -7.8245   0.0000   0.0904
 -15.000  -0.8336   0.02917   0.02392  -0.1084  0.5649  0.0102  -7.5054   0.0000   0.0874
 -14.500  -0.8071   0.02715   0.02186  -0.1077  0.5644  0.0102  -7.2001   0.0000   0.0847
 -14.000  -0.7768   0.02550   0.02018  -0.1070  0.5638  0.0103  -6.8806   0.0000   0.0810
 -13.500  -0.7485   0.02375   0.01841  -0.1061  0.5629  0.0103  -6.5752   0.0000   0.0775
 -13.000  -0.7168   0.02229   0.01692  -0.1053  0.5618  0.0103  -6.2593   0.0000   0.0729
 -12.500  -0.6852   0.02077   0.01537  -0.1044  0.5604  0.0104  -5.9499   0.0000   0.0678
 -12.000  -0.6511   0.01939   0.01397  -0.1037  0.5587  0.0104  -5.6361   0.0000   0.0613
 -11.500  -0.6150   0.01808   0.01263  -0.1032  0.5568  0.0105  -5.3206   0.0000   0.0531
 -11.000  -0.5767   0.01681   0.01133  -0.1029  0.5545  0.0105  -5.0041   0.0000   0.0424
 -10.500  -0.5339   0.01561   0.01010  -0.1033  0.5514  0.0106  -4.6794   0.0000   0.0271
 -10.000  -0.4812   0.01452   0.00898  -0.1054  0.5478  0.0106  -4.3304   0.0000   0.0007
  -9.500  -0.4258   0.01350   0.00794  -0.1079  0.5450  0.0107  -3.9827   0.0000  -0.0350
  -9.000  -0.3831   0.01247   0.00690  -0.1079  0.5427  0.0107  -3.6834   0.0000  -0.0640
  -8.500  -0.3500   0.01141   0.00582  -0.1061  0.5425  0.0108  -3.4205   0.0000  -0.0860
  -8.000  -0.3229   0.01074   0.00515  -0.1018  0.5422  0.0108  -3.1835   0.0000  -0.0982
  -7.500  -0.2961   0.01028   0.00468  -0.0966  0.5418  0.0109  -2.9618   0.0000  -0.1096
  -7.000  -0.2761   0.00991   0.00431  -0.0898  0.5411  0.0112  -2.7784   0.0000  -0.1080
  -6.500  -0.2396   0.00954   0.00393  -0.0862  0.5396  0.0120  -2.5699   0.0000  -0.1440
  -6.000  -0.1985   0.00921   0.00362  -0.0833  0.5371  0.0131  -2.3403   0.0000  -0.2072
  -5.500  -0.1546   0.00893   0.00335  -0.0810  0.5344  0.0145  -2.1083   0.0000  -0.3168
  -5.000  -0.1123   0.00861   0.00306  -0.0783  0.5310  0.0223  -1.8855   0.0000  -0.4998
  -4.500  -0.0719   0.00823   0.00276  -0.0753  0.5256  0.0439  -1.6710   0.0000  -0.8682
  -4.000  -0.0309   0.00786   0.00251  -0.0724  0.5215  0.0738  -1.4604   0.0000  -2.2369
  -3.000   0.0461   0.00683   0.00193  -0.0655  0.5203  0.1909  -1.0712   0.0000   1.7334
  -2.500   0.0765   0.00614   0.00159  -0.0603  0.5191  0.2950  -0.9026   0.0000   1.0683
  -2.000   0.0993   0.00528   0.00121  -0.0536  0.5168  0.4384  -0.8772   0.0000   0.8061
  -1.500   0.1505   0.00496   0.00114  -0.0527  0.5112  0.5182  -0.9260   0.0000   0.6055
  -1.000   0.2073   0.00500   0.00117  -0.0527  0.5018  0.5357  -0.9784   0.0000   0.5046
  -0.500   0.2651   0.00504   0.00119  -0.0530  0.4986  0.5389  -1.0319   0.0000   0.4468
   0.000   0.3224   0.00510   0.00123  -0.0532  0.4900  0.5468  -1.0881   0.0000   0.4099
   0.500   0.3803   0.00518   0.00128  -0.0536  0.4787  0.5508  -1.1453   0.0000   0.3842
   1.000   0.4367   0.00538   0.00137  -0.0537  0.4543  0.5527  -1.2114   0.0000   0.3652
   1.500   0.4911   0.00570   0.00154  -0.0536  0.4203  0.5546  -1.2773   0.0000   0.3502
   2.000   0.5453   0.00604   0.00174  -0.0534  0.3913  0.5565  -1.3436   0.0000   0.3382
   2.500   0.6007   0.00632   0.00192  -0.0535  0.3703  0.5582  -1.4152   0.0000   0.3285
   3.000   0.6587   0.00658   0.00210  -0.0542  0.3533  0.5590  -1.4897   0.0000   0.3210
   3.500   0.7189   0.00683   0.00228  -0.0554  0.3382  0.5595  -1.5665   0.0000   0.3150
   4.000   0.7805   0.00710   0.00248  -0.0570  0.3237  0.5600  -1.6453   0.0000   0.3103
   4.500   0.8441   0.00738   0.00270  -0.0591  0.3119  0.5603  -1.7266   0.0000   0.3066
   5.000   0.9149   0.00762   0.00290  -0.0627  0.3013  0.5606  -1.8233   0.0000   0.3045
   5.500   0.9858   0.00798   0.00318  -0.0666  0.2852  0.5609  -1.9266   0.0000   0.3029
   6.000   1.0475   0.00829   0.00344  -0.0684  0.2746  0.5623  -2.0229   0.0000   0.2999
   6.500   1.1063   0.00854   0.00366  -0.0696  0.2661  0.5644  -2.1177   0.0000   0.2968
   7.000   1.1589   0.00890   0.00397  -0.0696  0.2552  0.5667  -2.2075   0.0000   0.2932
   7.500   1.2113   0.00918   0.00425  -0.0696  0.2471  0.5692  -2.2980   0.0000   0.2898
   8.000   1.2586   0.00962   0.00464  -0.0687  0.2353  0.5716  -2.3841   0.0000   0.2861
   8.500   1.3087   0.00994   0.00497  -0.0683  0.2286  0.5738  -2.4870   0.0000   0.2829
   9.000   1.3507   0.01047   0.00545  -0.0665  0.2177  0.5757  -2.5878   0.0000   0.2791
   9.500   1.3967   0.01088   0.00587  -0.0656  0.2119  0.5774  -2.6946   0.0000   0.2759
  10.000   1.4344   0.01154   0.00649  -0.0633  0.2022  0.5789  -2.7920   0.0000   0.2722
  10.500   1.4761   0.01209   0.00704  -0.0619  0.1969  0.5803  -2.8954   0.0000   0.2691
  11.000   1.5104   0.01291   0.00785  -0.0595  0.1898  0.5814  -2.9907   0.0000   0.2656
  11.500   1.5459   0.01374   0.00869  -0.0575  0.1836  0.5822  -3.0924   0.0000   0.2624
  12.000   1.5782   0.01480   0.00976  -0.0553  0.1783  0.5827  -3.1917   0.0000   0.2593
  12.500   1.6025   0.01638   0.01133  -0.0527  0.1695  0.5830  -3.2858   0.0000   0.2560
  13.000   1.6282   0.01824   0.01321  -0.0510  0.1633  0.5868  -3.3925   0.0000   0.2533
  13.500   1.6464   0.02084   0.01583  -0.0493  0.1546  0.5914  -3.4879   0.0000   0.2508
  14.000   1.6657   0.02342   0.01845  -0.0478  0.1498  0.5957  -3.5853   0.0000   0.2483
  14.500   1.6805   0.02640   0.02146  -0.0463  0.1437  0.5989  -3.6802   0.0000   0.2459
  15.000   1.7021   0.02902   0.02415  -0.0454  0.1414  0.6017  -3.7925   0.0000   0.2439
  15.500   1.7123   0.03253   0.02771  -0.0441  0.1366  0.6037  -3.8871   0.0000   0.2417
  16.000   1.7187   0.03637   0.03157  -0.0427  0.1298  0.6051  -3.9755   0.0000   0.2395
  16.500   1.7264   0.04020   0.03543  -0.0416  0.1246  0.6060  -4.0663   0.0000   0.2374
  17.000   1.7301   0.04445   0.03972  -0.0405  0.1179  0.6128  -4.1485   0.0000   0.2354
  17.500   1.7395   0.04823   0.04353  -0.0398  0.1124  0.6195  -4.2423   0.0000   0.2335
  18.000   1.7438   0.05262   0.04797  -0.0392  0.1070  0.6245  -4.3249   0.0000   0.2317
  18.500   1.7507   0.05682   0.05221  -0.0388  0.1030  0.6284  -4.4128   0.0000   0.2300
  19.000   1.7574   0.06109   0.05653  -0.0385  0.0979  0.6366  -4.4996   0.0000   0.2284
  19.500   1.7604   0.06591   0.06142  -0.0385  0.0940  0.6466  -4.5778   0.0000   0.2269
  21.000   1.7571   0.08206   0.07777  -0.0394  0.0794  0.6840  -4.7908   0.0000   0.2231
  22.000   1.7429   0.09482   0.09076  -0.0416  0.0714  0.7308  -5.0120   0.0000   0.2215
  22.500   1.7305   0.10214   0.09823  -0.0433  0.0675  0.7760  -5.1276   0.0000   0.2211
  23.000   1.6876   0.10598   0.10258  -0.0349  0.0648  0.9943  -5.1499   0.0000   0.2153
  23.500   1.7147   0.11731   0.11399  -0.0494  0.0604  1.0000  -5.3832   0.0000   0.2217
  24.000   1.7048   0.12434   0.12110  -0.0518  0.0577  1.0000  -5.5040   0.0000   0.2216
  24.500   1.6915   0.13192   0.12877  -0.0547  0.0554  1.0000  -5.6082   0.0000   0.2219
  25.000   1.6722   0.14030   0.13722  -0.0582  0.0521  1.0000  -5.6836   0.0000   0.2227
  25.500   1.6597   0.14786   0.14487  -0.0618  0.0500  1.0000  -5.7839   0.0000   0.2234
  26.000   1.6401   0.15653   0.15361  -0.0662  0.0466  1.0000  -5.8474   0.0000   0.2248
  26.500   1.6280   0.16415   0.16132  -0.0705  0.0446  1.0000  -5.9402   0.0000   0.2260
  27.000   1.6094   0.17270   0.16993  -0.0756  0.0412  1.0000  -5.9975   0.0000   0.2278
  27.500   1.5992   0.18004   0.17730  -0.0804  0.0370  1.0000  -6.0914   0.0000   0.2293
  28.000   1.5785   0.18917   0.18648  -0.0864  0.0324  1.0000  -6.1308   0.0000   0.2319
  28.500   1.5545   0.19896   0.19630  -0.0932  0.0271  1.0000  -6.1430   0.0000   0.2352
  29.000   1.5331   0.20844   0.20584  -0.1001  0.0230  1.0000  -6.1593   0.0000   0.2386
  29.500   1.5141   0.21761   0.21506  -0.1070  0.0193  1.0000  -6.1799   0.0000   0.2421
  30.000   1.4955   0.22670   0.22418  -0.1142  0.0158  1.0000  -6.1935   0.0000   0.2459
  30.500   1.4725   0.23677   0.23429  -0.1222  0.0110  1.0000  -6.1663   0.0000   0.2505
  31.000   1.4541   0.24618   0.24374  -0.1299  0.0081  1.0000  -6.1565   0.0000   0.2549
  31.500   1.4442   0.25394   0.25158  -0.1367  0.0070  1.0000  -6.1974   0.0000   0.2582
  32.000   1.4436   0.25981   0.25748  -0.1423  0.0063  1.0000  -6.3029   0.0000   0.2601
  32.500   1.4388   0.26653   0.26427  -0.1486  0.0059  1.0000  -6.3717   0.0000   0.2627
  33.000   1.4349   0.27297   0.27079  -0.1548  0.0056  1.0000  -6.4432   0.0000   0.2652
  33.500   1.4360   0.27833   0.27619  -0.1605  0.0053  0.9999  -6.5543   0.0000   0.2668
  34.000   1.4296   0.28524   0.28317  -0.1672  0.0049  0.9999  -6.5961   0.0000   0.2697
  34.500   1.4236   0.29205   0.29005  -0.1739  0.0046  0.9999  -6.6321   0.0000   0.2727
  35.000   1.4278   0.29643   0.29447  -0.1791  0.0045  0.9999  -6.7671   0.0000   0.2736
  35.500   1.4252   0.30232   0.30043  -0.1854  0.0044  0.9999  -6.8410   0.0000   0.2759
  36.000   1.4280   0.30680   0.30495  -0.1909  0.0042  0.9999  -6.9696   0.0000   0.2770
  36.500   1.4240   0.31284   0.31105  -0.1974  0.0040  0.9999  -7.0228   0.0000   0.2795
  37.000   1.4248   0.31758   0.31582  -0.2032  0.0038  0.9999  -7.1267   0.0000   0.2809
  37.500   1.4196   0.32379   0.32209  -0.2099  0.0034  0.9999  -7.1570   0.0000   0.2836
  38.000   1.4167   0.32928   0.32764  -0.2162  0.0033  0.9998  -7.2221   0.0000   0.2857
  38.500   1.4201   0.33300   0.33139  -0.2216  0.0032  0.9998  -7.3772   0.0000   0.2864
  39.000   1.4185   0.33797   0.33642  -0.2277  0.0031  0.9998  -7.4644   0.0000   0.2881
  39.500   1.4204   0.34177   0.34025  -0.2332  0.0030  0.9998  -7.6023   0.0000   0.2889
  40.000   1.4177   0.34681   0.34534  -0.2395  0.0028  0.9998  -7.6715   0.0000   0.2907
  40.500   1.4183   0.35074   0.34929  -0.2452  0.0027  0.9998  -7.7902   0.0000   0.2917
  41.000   1.4138   0.35602   0.35461  -0.2517  0.0024  0.9998  -7.8251   0.0000   0.2938
  41.500   1.4143   0.35969   0.35832  -0.2573  0.0023  0.9998  -7.9412   0.0000   0.2946
  42.000   1.4131   0.36356   0.36223  -0.2632  0.0022  0.9997  -8.0297   0.0000   0.2957
  42.500   1.4147   0.36617   0.36487  -0.2686  0.0022  0.9997  -8.1679   0.0000   0.2960
  43.000   1.4162   0.36838   0.36710  -0.2740  0.0021  0.9997  -8.3076   0.0000   0.2962
  43.500   1.4140   0.37121   0.36998  -0.2800  0.0020  0.9997  -8.3792   0.0000   0.2974
  44.000   1.4147   0.37305   0.37184  -0.2854  0.0019  0.9997  -8.5087   0.0000   0.2976
  44.500   1.4113   0.37577   0.37459  -0.2915  0.0017  0.9996  -8.5575   0.0000   0.2988
  45.000   1.4098   0.37786   0.37670  -0.2972  0.0016  0.9996  -8.6456   0.0000   0.2994
  45.500   1.4082   0.37994   0.37881  -0.3029  0.0014  0.9996  -8.7361   0.0000   0.2999


