xflr5 v6.33

 Calculated polar for: Bell A821201 v4

 1 1 Reynolds number fixed          Mach number fixed         

 xtrf =   1.000 (top)        1.000 (bottom)
 Mach =   0.000     Re =     4.200 e 6     Ncrit =   9.000

  alpha     CL        CD       CDp       Cm    Top Xtr Bot Xtr   Cpmin    Chinge    XCp    
 ------- -------- --------- --------- -------- ------- ------- -------- --------- ---------
 -27.000  -0.7244   0.20808   0.20667  -0.0199  0.9943  0.0091  -7.6951   0.0000   0.1502
 -26.500  -0.7570   0.19231   0.19075  -0.0307  0.9939  0.0094  -8.3936   0.0000   0.1397
 -26.000  -0.7738   0.17973   0.17805  -0.0403  0.9932  0.0095  -8.7669   0.0000   0.1302
 -25.500  -0.7864   0.16836   0.16657  -0.0489  0.9919  0.0096  -9.0162   0.0000   0.1221
 -25.000  -0.8197   0.15801   0.15610  -0.0526  0.9905  0.0097  -9.3326   0.0000   0.1231
 -24.500  -0.8495   0.14648   0.14444  -0.0588  0.9898  0.0097  -9.6233   0.0000   0.1206
 -24.000  -0.8747   0.13533   0.13315  -0.0652  0.9887  0.0098  -9.8387   0.0000   0.1175
 -23.500  -0.9039   0.12350   0.12118  -0.0721  0.9871  0.0098  -10.0629   0.0000   0.1146
 -23.000  -0.9329   0.11188   0.10939  -0.0788  0.9848  0.0098  -10.2515   0.0000   0.1122
 -22.500  -0.9583   0.10101   0.09836  -0.0849  0.9808  0.0098  -10.3777   0.0000   0.1101
 -22.000  -0.9589   0.09113   0.08768  -0.0937  0.8016  0.0099  -10.3332   0.0000   0.1025
 -21.500  -0.9736   0.08282   0.07917  -0.0977  0.7792  0.0099  -10.3243   0.0000   0.1017
 -21.000  -0.9841   0.07536   0.07153  -0.1010  0.7626  0.0100  -10.2689   0.0000   0.1012
 -20.500  -0.9874   0.06902   0.06500  -0.1035  0.7363  0.0100  -10.1504   0.0000   0.1006
 -20.000  -0.9835   0.06356   0.05917  -0.1060  0.6472  0.0100  -9.9807   0.0000   0.0990
 -19.500  -0.9782   0.05854   0.05400  -0.1076  0.6274  0.0101  -9.7926   0.0000   0.0982
 -19.000  -0.9698   0.05404   0.04936  -0.1088  0.6111  0.0101  -9.5814   0.0000   0.0972
 -18.500  -0.9591   0.04995   0.04518  -0.1095  0.6043  0.0101  -9.3526   0.0000   0.0964
 -18.000  -0.9459   0.04622   0.04133  -0.1101  0.5952  0.0102  -9.1081   0.0000   0.0953
 -17.500  -0.9272   0.04317   0.03821  -0.1103  0.5877  0.0102  -8.8318   0.0000   0.0938
 -17.000  -0.9093   0.04009   0.03506  -0.1103  0.5852  0.0103  -8.5613   0.0000   0.0924
 -16.500  -0.8882   0.03739   0.03229  -0.1102  0.5819  0.0103  -8.2747   0.0000   0.0905
 -16.000  -0.8652   0.03491   0.02974  -0.1099  0.5779  0.0104  -7.9810   0.0000   0.0883
 -15.500  -0.8406   0.03258   0.02734  -0.1096  0.5726  0.0104  -7.6821   0.0000   0.0857
 -15.000  -0.8142   0.03048   0.02517  -0.1092  0.5677  0.0104  -7.3778   0.0000   0.0827
 -14.500  -0.7863   0.02851   0.02317  -0.1087  0.5651  0.0105  -7.0700   0.0000   0.0792
 -14.000  -0.7584   0.02663   0.02124  -0.1080  0.5646  0.0105  -6.7662   0.0000   0.0757
 -13.500  -0.7289   0.02494   0.01953  -0.1072  0.5641  0.0106  -6.4588   0.0000   0.0715
 -13.000  -0.6993   0.02330   0.01786  -0.1064  0.5633  0.0106  -6.1564   0.0000   0.0670
 -12.500  -0.6680   0.02178   0.01631  -0.1055  0.5623  0.0106  -5.8514   0.0000   0.0616
 -12.000  -0.6346   0.02035   0.01486  -0.1048  0.5611  0.0107  -5.5440   0.0000   0.0548
 -11.500  -0.6003   0.01894   0.01342  -0.1042  0.5596  0.0107  -5.2389   0.0000   0.0466
 -11.000  -0.5625   0.01768   0.01213  -0.1038  0.5578  0.0107  -4.9273   0.0000   0.0357
 -10.500  -0.5217   0.01645   0.01088  -0.1039  0.5557  0.0108  -4.6122   0.0000   0.0209
 -10.000  -0.4733   0.01529   0.00969  -0.1053  0.5530  0.0108  -4.2805   0.0000  -0.0031
  -9.500  -0.4170   0.01423   0.00860  -0.1080  0.5499  0.0108  -3.9329   0.0000  -0.0413
  -9.000  -0.3741   0.01317   0.00752  -0.1081  0.5472  0.0109  -3.6357   0.0000  -0.0723
  -8.500  -0.3369   0.01213   0.00646  -0.1071  0.5447  0.0109  -3.3633   0.0000  -0.1021
  -8.000  -0.3154   0.01114   0.00543  -0.1028  0.5427  0.0111  -3.1519   0.0000  -0.1095
  -7.500  -0.2918   0.01056   0.00484  -0.0972  0.5424  0.0116  -2.9611   0.0000  -0.1168
  -7.000  -0.2743   0.01019   0.00446  -0.0899  0.5420  0.0121  -2.7849   0.0000  -0.1107
  -6.500  -0.2381   0.00982   0.00410  -0.0862  0.5412  0.0128  -2.5619   0.0000  -0.1467
  -6.000  -0.1971   0.00949   0.00378  -0.0834  0.5393  0.0136  -2.3304   0.0000  -0.2109
  -5.500  -0.1546   0.00917   0.00348  -0.0808  0.5370  0.0159  -2.1062   0.0000  -0.3158
  -5.000  -0.1138   0.00878   0.00317  -0.0779  0.5348  0.0278  -1.8869   0.0000  -0.4866
  -4.500  -0.0750   0.00834   0.00283  -0.0746  0.5310  0.0553  -1.6762   0.0000  -0.8135
  -4.000  -0.0341   0.00795   0.00255  -0.0717  0.5262  0.0870  -1.4659   0.0000  -1.9806
  -3.500   0.0039   0.00749   0.00228  -0.0682  0.5223  0.1386  -1.2686   0.0000  18.7977
  -3.000   0.0390   0.00690   0.00196  -0.0640  0.5210  0.2178  -1.0841   0.0000   1.9699
  -2.500   0.0659   0.00612   0.00159  -0.0582  0.5203  0.3326  -0.9215   0.0000   1.1684
  -2.000   0.0922   0.00521   0.00123  -0.0523  0.5189  0.4917  -0.8729   0.0000   0.8351
  -1.500   0.1481   0.00511   0.00123  -0.0522  0.5155  0.5262  -0.9244   0.0000   0.6081
  -1.000   0.2045   0.00516   0.00125  -0.0521  0.5087  0.5381  -0.9767   0.0000   0.5050
  -0.500   0.2608   0.00525   0.00129  -0.0520  0.5008  0.5402  -1.0292   0.0000   0.4466
   0.000   0.3183   0.00524   0.00132  -0.0523  0.4965  0.5516  -1.0854   0.0000   0.4092
   0.500   0.3752   0.00534   0.00136  -0.0524  0.4850  0.5534  -1.1420   0.0000   0.3831
   1.000   0.4319   0.00546   0.00142  -0.0526  0.4703  0.5551  -1.2081   0.0000   0.3639
   1.500   0.4861   0.00573   0.00155  -0.0524  0.4404  0.5567  -1.2739   0.0000   0.3488
   2.000   0.5381   0.00610   0.00175  -0.0517  0.4073  0.5584  -1.3385   0.0000   0.3363
   2.500   0.5917   0.00640   0.00194  -0.0515  0.3828  0.5595  -1.4082   0.0000   0.3263
   3.000   0.6474   0.00668   0.00213  -0.0517  0.3634  0.5600  -1.4807   0.0000   0.3184
   4.000   0.7638   0.00723   0.00253  -0.0533  0.3331  0.5607  -1.6318   0.0000   0.3070
   4.500   0.8251   0.00748   0.00273  -0.0549  0.3210  0.5609  -1.7110   0.0000   0.3030
   5.000   0.8925   0.00780   0.00298  -0.0579  0.3060  0.5626  -1.8029   0.0000   0.3007
   5.500   0.9749   0.00810   0.00323  -0.0642  0.2942  0.5651  -1.9164   0.0000   0.3012
   6.000   1.0406   0.00840   0.00349  -0.0669  0.2818  0.5673  -2.0162   0.0000   0.2989
   6.500   1.0974   0.00875   0.00378  -0.0678  0.2697  0.5695  -2.1088   0.0000   0.2956
   7.000   1.1528   0.00900   0.00404  -0.0683  0.2632  0.5716  -2.2012   0.0000   0.2924
   7.500   1.2016   0.00943   0.00441  -0.0677  0.2500  0.5734  -2.2879   0.0000   0.2886
   8.000   1.2530   0.00974   0.00472  -0.0675  0.2438  0.5750  -2.3782   0.0000   0.2854
   8.500   1.2987   0.01021   0.00515  -0.0664  0.2324  0.5766  -2.4752   0.0000   0.2818
   9.000   1.3446   0.01062   0.00555  -0.0653  0.2260  0.5781  -2.5807   0.0000   0.2784
   9.500   1.3865   0.01118   0.00608  -0.0637  0.2156  0.5794  -2.6820   0.0000   0.2749
  10.000   1.4278   0.01173   0.00662  -0.0621  0.2096  0.5806  -2.7839   0.0000   0.2715
  10.500   1.4631   0.01251   0.00737  -0.0597  0.1997  0.5816  -2.8789   0.0000   0.2679
  11.000   1.5016   0.01320   0.00808  -0.0580  0.1951  0.5824  -2.9792   0.0000   0.2648
  11.500   1.5318   0.01429   0.00915  -0.0554  0.1875  0.5828  -3.0733   0.0000   0.2613
  12.000   1.5665   0.01530   0.01020  -0.0537  0.1828  0.5843  -3.1750   0.0000   0.2585
  12.500   1.5939   0.01684   0.01176  -0.0517  0.1764  0.5883  -3.2728   0.0000   0.2555
  13.000   1.6180   0.01890   0.01385  -0.0501  0.1687  0.5927  -3.3757   0.0000   0.2529
  13.500   1.6373   0.02145   0.01641  -0.0485  0.1611  0.5963  -3.4727   0.0000   0.2504
  14.000   1.6537   0.02426   0.01925  -0.0468  0.1538  0.5993  -3.5649   0.0000   0.2479
  14.500   1.6675   0.02736   0.02239  -0.0454  0.1490  0.6018  -3.6569   0.0000   0.2455
  15.000   1.6798   0.03070   0.02576  -0.0440  0.1428  0.6038  -3.7508   0.0000   0.2433
  15.500   1.6988   0.03352   0.02865  -0.0432  0.1408  0.6052  -3.8606   0.0000   0.2413
  16.000   1.7054   0.03737   0.03253  -0.0418  0.1350  0.6060  -3.9490   0.0000   0.2391
  16.500   1.7141   0.04117   0.03638  -0.0409  0.1291  0.6127  -4.0410   0.0000   0.2371
  17.000   1.7188   0.04540   0.04065  -0.0400  0.1233  0.6191  -4.1248   0.0000   0.2351
  17.500   1.7280   0.04923   0.04452  -0.0393  0.1171  0.6241  -4.2178   0.0000   0.2333
  18.000   1.7314   0.05367   0.04898  -0.0386  0.1111  0.6279  -4.2981   0.0000   0.2315
  18.500   1.7369   0.05810   0.05347  -0.0383  0.1064  0.6342  -4.3823   0.0000   0.2298
  19.000   1.7464   0.06210   0.05752  -0.0381  0.1021  0.6450  -4.4749   0.0000   0.2283
  19.500   1.7482   0.06705   0.06254  -0.0381  0.0975  0.6523  -4.5496   0.0000   0.2268
  20.000   1.7492   0.07220   0.06778  -0.0383  0.0928  0.6673  -4.6244   0.0000   0.2255
  20.500   1.7528   0.07704   0.07267  -0.0386  0.0879  0.6801  -4.7069   0.0000   0.2242
  21.000   1.7472   0.08312   0.07885  -0.0393  0.0834  0.6980  -4.7657   0.0000   0.2232
  21.500   1.7410   0.08941   0.08525  -0.0403  0.0792  0.7235  -4.8443   0.0000   0.2223
  22.000   1.7314   0.09626   0.09226  -0.0418  0.0752  0.7662  -4.9697   0.0000   0.2217
  22.500   1.6832   0.10072   0.09726  -0.0331  0.0723  0.9935  -4.9744   0.0000   0.2158
  23.000   1.7145   0.11164   0.10825  -0.0475  0.0669  1.0000  -5.2215   0.0000   0.2221
  23.500   1.7012   0.11907   0.11576  -0.0497  0.0637  1.0000  -5.3300   0.0000   0.2221
  24.000   1.6831   0.12727   0.12404  -0.0525  0.0606  1.0000  -5.4157   0.0000   0.2224
  24.500   1.6700   0.13483   0.13169  -0.0555  0.0579  1.0000  -5.5184   0.0000   0.2228
  25.000   1.6654   0.14119   0.13812  -0.0584  0.0556  1.0000  -5.6542   0.0000   0.2229
  25.500   1.6466   0.14968   0.14668  -0.0624  0.0522  1.0000  -5.7253   0.0000   0.2240
  26.000   1.6356   0.15713   0.15422  -0.0663  0.0501  1.0000  -5.8264   0.0000   0.2250
  26.500   1.6171   0.16571   0.16287  -0.0711  0.0469  1.0000  -5.8881   0.0000   0.2266
  27.000   1.6057   0.17323   0.17047  -0.0758  0.0447  1.0000  -5.9786   0.0000   0.2280
  27.500   1.5911   0.18131   0.17860  -0.0810  0.0410  1.0000  -6.0482   0.0000   0.2299
  28.000   1.5792   0.18901   0.18633  -0.0863  0.0368  1.0000  -6.1332   0.0000   0.2318
  28.500   1.5603   0.19795   0.19533  -0.0925  0.0324  1.0000  -6.1741   0.0000   0.2346
  29.000   1.5374   0.20764   0.20505  -0.0995  0.0271  1.0000  -6.1836   0.0000   0.2381
  29.500   1.5170   0.21703   0.21449  -0.1066  0.0229  1.0000  -6.1969   0.0000   0.2417
  30.000   1.4985   0.22610   0.22360  -0.1138  0.0192  1.0000  -6.2113   0.0000   0.2454
  30.500   1.4809   0.23512   0.23266  -0.1211  0.0156  1.0000  -6.2217   0.0000   0.2493
  31.000   1.4575   0.24543   0.24299  -0.1294  0.0106  1.0000  -6.1796   0.0000   0.2544
  31.500   1.4411   0.25458   0.25219  -0.1371  0.0080  1.0000  -6.1726   0.0000   0.2587
  32.000   1.4353   0.26158   0.25924  -0.1435  0.0070  1.0000  -6.2351   0.0000   0.2615
  32.500   1.4329   0.26785   0.26557  -0.1496  0.0063  1.0000  -6.3202   0.0000   0.2638
  33.000   1.4276   0.27470   0.27249  -0.1561  0.0059  1.0000  -6.3766   0.0000   0.2666
  33.500   1.4261   0.28064   0.27849  -0.1621  0.0056  1.0000  -6.4618   0.0000   0.2688
  34.000   1.4256   0.28629   0.28419  -0.1680  0.0053  1.0000  -6.5532   0.0000   0.2707
  34.500   1.4197   0.29310   0.29107  -0.1747  0.0050  1.0000  -6.5904   0.0000   0.2737
  35.000   1.4188   0.29871   0.29672  -0.1808  0.0046  1.0000  -6.6705   0.0000   0.2757
  35.500   1.4173   0.30435   0.30244  -0.1869  0.0045  1.0000  -6.7516   0.0000   0.2777
  36.000   1.4168   0.30964   0.30779  -0.1929  0.0044  0.9999  -6.8413   0.0000   0.2796
  36.500   1.4183   0.31436   0.31255  -0.1985  0.0042  0.9999  -6.9508   0.0000   0.2809
  37.000   1.4154   0.32008   0.31833  -0.2049  0.0040  0.9999  -7.0078   0.0000   0.2832
  37.500   1.4163   0.32474   0.32303  -0.2107  0.0038  0.9999  -7.1110   0.0000   0.2845
  38.000   1.4114   0.33084   0.32918  -0.2174  0.0035  0.9999  -7.1451   0.0000   0.2872
  38.500   1.4122   0.33529   0.33366  -0.2231  0.0033  0.9999  -7.2616   0.0000   0.2885
  39.000   1.4118   0.33990   0.33833  -0.2291  0.0032  0.9999  -7.3631   0.0000   0.2899
  39.500   1.4146   0.34353   0.34199  -0.2345  0.0031  0.9999  -7.5086   0.0000   0.2905
  40.000   1.4129   0.34825   0.34676  -0.2406  0.0030  0.9999  -7.5905   0.0000   0.2921
  40.500   1.4146   0.35190   0.35044  -0.2461  0.0028  0.9998  -7.7228   0.0000   0.2928
  41.000   1.4116   0.35674   0.35532  -0.2523  0.0027  0.9998  -7.7817   0.0000   0.2946
  41.500   1.4116   0.36060   0.35920  -0.2580  0.0025  0.9998  -7.8872   0.0000   0.2955
  42.000   1.4086   0.36491   0.36355  -0.2642  0.0023  0.9998  -7.9383   0.0000   0.2971
  42.500   1.4109   0.36722   0.36589  -0.2695  0.0022  0.9998  -8.0867   0.0000   0.2973
  43.000   1.4121   0.36948   0.36818  -0.2750  0.0022  0.9998  -8.2180   0.0000   0.2976
  43.500   1.4109   0.37202   0.37077  -0.2808  0.0021  0.9997  -8.3063   0.0000   0.2984
  44.000   1.4120   0.37377   0.37254  -0.2862  0.0020  0.9997  -8.4420   0.0000   0.2985
  44.500   1.4096   0.37623   0.37504  -0.2921  0.0019  0.9997  -8.5085   0.0000   0.2995
  45.000   1.4090   0.37817   0.37700  -0.2976  0.0017  0.9997  -8.6150   0.0000   0.2998
  45.500   1.4053   0.38080   0.37965  -0.3037  0.0016  0.9997  -8.6599   0.0000   0.3010


