xflr5 v6.33

 Calculated polar for: Bell A821201 v4

 1 1 Reynolds number fixed          Mach number fixed         

 xtrf =   1.000 (top)        1.000 (bottom)
 Mach =   0.000     Re =     1.800 e 6     Ncrit =   9.000

  alpha     CL        CD       CDp       Cm    Top Xtr Bot Xtr   Cpmin    Chinge    XCp    
 ------- -------- --------- --------- -------- ------- ------- -------- --------- ---------
 -23.000  -0.7587   0.15338   0.15111  -0.0445  0.9969  0.0119  -7.8670   0.0000   0.1333
 -22.500  -0.7866   0.13855   0.13606  -0.0549  0.9960  0.0119  -8.2245   0.0000   0.1243
 -22.000  -0.8031   0.12588   0.12320  -0.0642  0.9947  0.0120  -8.4140   0.0000   0.1160
 -21.500  -0.8144   0.11449   0.11164  -0.0726  0.9930  0.0120  -8.5160   0.0000   0.1085
 -21.000  -0.8323   0.10453   0.10152  -0.0775  0.9903  0.0121  -8.5984   0.0000   0.1065
 -20.500  -0.8434   0.09553   0.09236  -0.0822  0.9877  0.0121  -8.6125   0.0000   0.1039
 -20.000  -0.8506   0.08694   0.08363  -0.0869  0.9821  0.0122  -8.5879   0.0000   0.1008
 -19.500  -0.8083   0.07693   0.07300  -0.1022  0.8439  0.0123  -8.3437   0.0000   0.0763
 -19.000  -0.8088   0.07081   0.06645  -0.1048  0.7755  0.0124  -8.2399   0.0000   0.0747
 -18.500  -0.8053   0.06523   0.06063  -0.1070  0.7385  0.0125  -8.1041   0.0000   0.0729
 -18.000  -0.7962   0.06030   0.05529  -0.1092  0.6554  0.0125  -7.9329   0.0000   0.0698
 -17.500  -0.7861   0.05574   0.05054  -0.1107  0.6343  0.0126  -7.7491   0.0000   0.0673
 -17.000  -0.7742   0.05163   0.04630  -0.1116  0.6244  0.0127  -7.5511   0.0000   0.0650
 -16.500  -0.7581   0.04800   0.04254  -0.1124  0.6130  0.0128  -7.3296   0.0000   0.0619
 -16.000  -0.7416   0.04463   0.03907  -0.1127  0.6085  0.0129  -7.1040   0.0000   0.0591
 -15.500  -0.7239   0.04144   0.03579  -0.1129  0.6042  0.0129  -6.8727   0.0000   0.0561
 -15.000  -0.7016   0.03874   0.03300  -0.1129  0.5995  0.0130  -6.6201   0.0000   0.0518
 -14.500  -0.6795   0.03607   0.03023  -0.1129  0.5937  0.0131  -6.3707   0.0000   0.0473
 -14.000  -0.6535   0.03376   0.02784  -0.1128  0.5883  0.0132  -6.1058   0.0000   0.0413
 -13.500  -0.6289   0.03146   0.02548  -0.1124  0.5872  0.0132  -5.8489   0.0000   0.0358
 -13.000  -0.6009   0.02946   0.02344  -0.1119  0.5858  0.0133  -5.5801   0.0000   0.0285
 -12.500  -0.5730   0.02748   0.02140  -0.1115  0.5841  0.0134  -5.3160   0.0000   0.0206
 -12.000  -0.5421   0.02578   0.01965  -0.1110  0.5822  0.0135  -5.0434   0.0000   0.0105
 -11.500  -0.5101   0.02408   0.01791  -0.1107  0.5801  0.0136  -4.7718   0.0000  -0.0018
 -11.000  -0.4732   0.02258   0.01636  -0.1109  0.5778  0.0136  -4.4877   0.0000  -0.0194
 -10.500  -0.4309   0.02111   0.01484  -0.1121  0.5754  0.0137  -4.1924   0.0000  -0.0461
 -10.000  -0.3868   0.01977   0.01346  -0.1132  0.5726  0.0138  -3.8975   0.0000  -0.0801
  -9.500  -0.3533   0.01826   0.01188  -0.1127  0.5693  0.0141  -3.6539   0.0000  -0.1071
  -9.000  -0.3198   0.01692   0.01050  -0.1118  0.5660  0.0146  -3.4086   0.0000  -0.1387
  -8.500  -0.2886   0.01569   0.00926  -0.1100  0.5648  0.0152  -3.1689   0.0000  -0.1713
  -8.000  -0.2599   0.01449   0.00806  -0.1075  0.5642  0.0157  -2.9551   0.0000  -0.2048
  -7.500  -0.2362   0.01329   0.00684  -0.1042  0.5634  0.0164  -2.7720   0.0000  -0.2326
  -6.500  -0.2087   0.01185   0.00537  -0.0905  0.5611  0.0191  -2.4608   0.0000  -0.2232
  -6.000  -0.1835   0.01137   0.00492  -0.0850  0.5594  0.0255  -2.2812   0.0000  -0.2538
  -5.500  -0.1579   0.01070   0.00441  -0.0796  0.5574  0.0540  -2.0995   0.0000  -0.2967
  -5.000  -0.1262   0.01009   0.00395  -0.0751  0.5541  0.0902  -1.9018   0.0000  -0.3927
  -4.500  -0.0956   0.00942   0.00348  -0.0705  0.5495  0.1468  -1.7090   0.0000  -0.5429
  -4.000  -0.0669   0.00863   0.00303  -0.0655  0.5457  0.2375  -1.5254   0.0000  -0.7971
  -3.500  -0.0411   0.00767   0.00254  -0.0600  0.5425  0.3661  -1.3524   0.0000  -1.3022
  -3.000  -0.0128   0.00676   0.00217  -0.0545  0.5412  0.5123  -1.1775   0.0000  -4.2764
  -2.000   0.0939   0.00678   0.00223  -0.0529  0.5368  0.5484  -0.8726   0.0000   0.8312
  -1.500   0.1472   0.00688   0.00232  -0.0521  0.5341  0.5565  -0.9226   0.0000   0.6097
  -1.000   0.1974   0.00700   0.00241  -0.0506  0.5309  0.5632  -0.9711   0.0000   0.5066
  -0.500   0.2480   0.00696   0.00234  -0.0493  0.5263  0.5678  -1.0201   0.0000   0.4460
   0.000   0.3010   0.00700   0.00234  -0.0486  0.5208  0.5698  -1.0730   0.0000   0.4064
   0.500   0.3528   0.00696   0.00231  -0.0476  0.5167  0.5724  -1.1264   0.0000   0.3781
   1.000   0.4054   0.00697   0.00231  -0.0468  0.5104  0.5749  -1.1884   0.0000   0.3573
   1.500   0.4564   0.00702   0.00230  -0.0458  0.5022  0.5761  -1.2518   0.0000   0.3411
   2.000   0.5116   0.00705   0.00233  -0.0456  0.4955  0.5776  -1.3188   0.0000   0.3291
   2.500   0.5625   0.00716   0.00237  -0.0447  0.4811  0.5788  -1.3841   0.0000   0.3184
   3.000   0.6129   0.00735   0.00246  -0.0437  0.4597  0.5798  -1.4524   0.0000   0.3095
   3.500   0.6589   0.00769   0.00266  -0.0419  0.4293  0.5807  -1.5176   0.0000   0.3011
   4.000   0.7042   0.00810   0.00294  -0.0401  0.4025  0.5815  -1.5824   0.0000   0.2936
   4.500   0.7519   0.00847   0.00322  -0.0389  0.3816  0.5821  -1.6497   0.0000   0.2877
   5.000   0.7999   0.00888   0.00354  -0.0378  0.3629  0.5827  -1.7187   0.0000   0.2825
   6.500   0.9776   0.01000   0.00452  -0.0424  0.3205  0.5885  -1.9938   0.0000   0.2766
   8.000   1.1716   0.01142   0.00587  -0.0513  0.2836  0.5945  -2.2934   0.0000   0.2750
   8.500   1.2220   0.01203   0.00645  -0.0516  0.2723  0.5963  -2.3854   0.0000   0.2726
   9.000   1.2702   0.01259   0.00702  -0.0515  0.2632  0.5981  -2.4915   0.0000   0.2700
   9.500   1.3103   0.01340   0.00780  -0.0502  0.2529  0.5999  -2.5888   0.0000   0.2669
  10.000   1.3522   0.01413   0.00857  -0.0492  0.2461  0.6018  -2.6892   0.0000   0.2641
  10.500   1.3858   0.01524   0.00967  -0.0473  0.2370  0.6035  -2.7798   0.0000   0.2609
  11.000   1.4192   0.01648   0.01094  -0.0458  0.2295  0.6047  -2.8702   0.0000   0.2581
  11.500   1.4455   0.01828   0.01275  -0.0441  0.2209  0.6057  -2.9543   0.0000   0.2552
  12.000   1.4734   0.02036   0.01487  -0.0432  0.2135  0.6083  -3.0412   0.0000   0.2530
  12.500   1.4951   0.02292   0.01747  -0.0422  0.2057  0.6127  -3.1223   0.0000   0.2507
  13.000   1.5146   0.02569   0.02030  -0.0411  0.1988  0.6167  -3.2070   0.0000   0.2485
  13.500   1.5360   0.02840   0.02309  -0.0403  0.1936  0.6202  -3.3025   0.0000   0.2464
  14.000   1.5443   0.03218   0.02690  -0.0390  0.1857  0.6233  -3.3769   0.0000   0.2441
  14.500   1.5632   0.03510   0.02990  -0.0382  0.1815  0.6263  -3.4701   0.0000   0.2422
  15.000   1.5734   0.03875   0.03358  -0.0372  0.1747  0.6285  -3.5523   0.0000   0.2401
  15.500   1.5863   0.04222   0.03711  -0.0364  0.1680  0.6327  -3.6433   0.0000   0.2382
  16.000   1.5981   0.04594   0.04090  -0.0359  0.1617  0.6402  -3.7327   0.0000   0.2364
  16.500   1.6050   0.05014   0.04514  -0.0353  0.1548  0.6464  -3.8165   0.0000   0.2346
  17.000   1.6197   0.05362   0.04868  -0.0350  0.1500  0.6520  -3.9168   0.0000   0.2329
  17.500   1.6214   0.05853   0.05364  -0.0347  0.1432  0.6624  -3.9894   0.0000   0.2314
  18.000   1.6415   0.06165   0.05688  -0.0348  0.1398  0.6741  -4.1011   0.0000   0.2299
  18.500   1.6440   0.06667   0.06198  -0.0349  0.1335  0.6891  -4.1746   0.0000   0.2286
  19.000   1.6522   0.07123   0.06666  -0.0354  0.1282  0.7092  -4.2596   0.0000   0.2274
  19.500   1.6575   0.07614   0.07168  -0.0360  0.1222  0.7401  -4.3375   0.0000   0.2263
  20.000   1.6586   0.08179   0.07754  -0.0370  0.1167  0.7949  -4.4041   0.0000   0.2255
  20.500   1.6504   0.08764   0.08383  -0.0362  0.1117  0.9983  -4.4541   0.0000   0.2236
  21.000   1.6628   0.09482   0.09110  -0.0415  0.1067  1.0000  -4.5412   0.0000   0.2252
  21.500   1.6548   0.10153   0.09789  -0.0428  0.1025  1.0000  -4.5868   0.0000   0.2246
  22.000   1.6407   0.10915   0.10558  -0.0446  0.0976  1.0000  -4.6359   0.0000   0.2243
  22.500   1.6358   0.11558   0.11210  -0.0464  0.0934  1.0000  -4.7635   0.0000   0.2240
  23.000   1.6161   0.12412   0.12071  -0.0491  0.0886  1.0000  -4.8391   0.0000   0.2245
  23.500   1.6120   0.13061   0.12730  -0.0516  0.0853  1.0000  -4.9723   0.0000   0.2245
  24.000   1.5930   0.13918   0.13593  -0.0551  0.0806  1.0000  -5.0432   0.0000   0.2254
  24.500   1.5850   0.14630   0.14315  -0.0584  0.0775  1.0000  -5.1552   0.0000   0.2261
  25.000   1.5676   0.15486   0.15178  -0.0627  0.0732  1.0000  -5.2230   0.0000   0.2275
  25.500   1.5601   0.16201   0.15902  -0.0666  0.0702  1.0000  -5.3302   0.0000   0.2286
  26.000   1.5497   0.16957   0.16663  -0.0711  0.0666  1.0000  -5.4208   0.0000   0.2301
  26.500   1.5448   0.17630   0.17343  -0.0754  0.0637  1.0000  -5.5340   0.0000   0.2313
  27.000   1.5347   0.18390   0.18111  -0.0804  0.0606  1.0000  -5.6185   0.0000   0.2331
  27.500   1.5264   0.19125   0.18853  -0.0856  0.0577  1.0000  -5.7075   0.0000   0.2349
  28.000   1.5264   0.19720   0.19454  -0.0901  0.0550  1.0000  -5.8376   0.0000   0.2361
  28.500   1.5150   0.20508   0.20248  -0.0960  0.0518  1.0000  -5.9076   0.0000   0.2385
  29.000   1.5120   0.21152   0.20899  -0.1012  0.0490  1.0000  -6.0232   0.0000   0.2402
  29.500   1.5071   0.21823   0.21574  -0.1068  0.0459  1.0000  -6.1254   0.0000   0.2422
  30.000   1.4988   0.22549   0.22306  -0.1128  0.0426  1.0000  -6.2025   0.0000   0.2447
  30.500   1.4963   0.23168   0.22929  -0.1184  0.0391  1.0000  -6.3127   0.0000   0.2465
  31.000   1.4847   0.23959   0.23724  -0.1252  0.0349  1.0000  -6.3579   0.0000   0.2497
  31.500   1.4687   0.24844   0.24611  -0.1327  0.0295  1.0000  -6.3631   0.0000   0.2538
  32.000   1.4499   0.25793   0.25561  -0.1408  0.0245  1.0000  -6.3359   0.0000   0.2585
  32.500   1.4347   0.26685   0.26456  -0.1487  0.0199  1.0000  -6.3216   0.0000   0.2630
  33.000   1.4172   0.27638   0.27410  -0.1570  0.0152  1.0000  -6.2736   0.0000   0.2681
  33.500   1.3996   0.28611   0.28384  -0.1655  0.0107  1.0000  -6.2069   0.0000   0.2735
  34.000   1.3895   0.29424   0.29200  -0.1730  0.0089  1.0000  -6.1913   0.0000   0.2777
  34.500   1.3827   0.30160   0.29942  -0.1801  0.0079  1.0000  -6.1964   0.0000   0.2812
  35.000   1.3800   0.30790   0.30578  -0.1866  0.0073  1.0000  -6.2430   0.0000   0.2839
  35.500   1.3808   0.31323   0.31115  -0.1925  0.0069  1.0000  -6.3278   0.0000   0.2858
  36.000   1.3786   0.31923   0.31721  -0.1989  0.0065  1.0000  -6.3740   0.0000   0.2883
  36.500   1.3790   0.32449   0.32248  -0.2050  0.0060  1.0000  -6.4467   0.0000   0.2901
  37.000   1.3808   0.32921   0.32727  -0.2108  0.0058  1.0000  -6.5386   0.0000   0.2916
  37.500   1.3843   0.33333   0.33143  -0.2162  0.0055  1.0000  -6.6634   0.0000   0.2925
  38.000   1.3859   0.33784   0.33599  -0.2220  0.0053  1.0000  -6.7619   0.0000   0.2938
  38.500   1.3883   0.34198   0.34015  -0.2276  0.0050  1.0000  -6.8834   0.0000   0.2948
  39.000   1.3918   0.34562   0.34379  -0.2331  0.0047  1.0000  -7.0247   0.0000   0.2954
  39.500   1.3949   0.34930   0.34752  -0.2385  0.0045  1.0000  -7.1609   0.0000   0.2960
  40.000   1.3968   0.35306   0.35133  -0.2441  0.0043  1.0000  -7.2808   0.0000   0.2969
  40.500   1.3996   0.35647   0.35478  -0.2495  0.0042  1.0000  -7.4192   0.0000   0.2973
  41.000   1.4005   0.36026   0.35861  -0.2552  0.0039  1.0000  -7.5280   0.0000   0.2982
  41.500   1.4020   0.36344   0.36182  -0.2608  0.0037  1.0000  -7.6519   0.0000   0.2988
  42.000   1.4046   0.36600   0.36438  -0.2661  0.0035  1.0000  -7.7956   0.0000   0.2990
  42.500   1.4084   0.36781   0.36620  -0.2712  0.0033  1.0000  -7.9633   0.0000   0.2988
  43.000   1.4076   0.37077   0.36923  -0.2771  0.0032  1.0000  -8.0458   0.0000   0.2997
  43.500   1.4079   0.37310   0.37161  -0.2827  0.0031  1.0000  -8.1546   0.0000   0.3002
  44.000   1.4071   0.37558   0.37415  -0.2885  0.0029  1.0000  -8.2415   0.0000   0.3009
  44.500   1.4064   0.37783   0.37643  -0.2942  0.0028  1.0000  -8.3357   0.0000   0.3014
  45.000   1.4060   0.37987   0.37850  -0.2997  0.0026  1.0000  -8.4474   0.0000   0.3017


