xflr5 v6.33

 Calculated polar for: Bell A821201 v4

 1 1 Reynolds number fixed          Mach number fixed         

 xtrf =   1.000 (top)        1.000 (bottom)
 Mach =   0.000     Re =     1.300 e 6     Ncrit =   9.000

  alpha     CL        CD       CDp       Cm    Top Xtr Bot Xtr   Cpmin    Chinge    XCp    
 ------- -------- --------- --------- -------- ------- ------- -------- --------- ---------
 -28.500  -0.6406   0.29675   0.29499   0.0410  1.0000  0.0090  -1.8977   0.0000   0.2408
 -28.000  -0.6268   0.29260   0.29085   0.0376  1.0000  0.0095  -1.8560   0.0000   0.2377
 -27.500  -0.6139   0.28706   0.28530   0.0339  1.0000  0.0106  -1.9256   0.0000   0.2336
 -27.000  -0.6046   0.27974   0.27798   0.0292  1.0000  0.0108  -2.1429   0.0000   0.2276
 -26.500  -0.5928   0.27394   0.27219   0.0254  1.0000  0.0109  -2.2188   0.0000   0.2229
 -26.000  -0.3264   0.21988   0.21843  -0.0064  1.0000  0.0110  -1.3448   0.0000   0.1822
 -25.500  -0.3151   0.21686   0.21542  -0.0082  1.0000  0.0112  -1.2733   0.0000   0.1756
 -25.000  -0.2863   0.21011   0.20864  -0.0166  0.9983  0.0114  -1.1950   0.0000   0.1409
 -24.500  -0.2594   0.20345   0.20197  -0.0245  0.9944  0.0119  -1.1377   0.0000   0.1009
 -24.000  -0.2512   0.19947   0.19800  -0.0261  0.9831  0.0126  -1.1281   0.0000   0.0907
 -23.500  -0.2087   0.18418   0.18253  -0.0458  0.9288  0.0138  -1.4301   0.0000  -0.0383
 -21.500  -0.7367   0.13918   0.13665  -0.0488  0.9985  0.0135  -7.2755   0.0000   0.1295
 -21.000  -0.7739   0.12180   0.11896  -0.0612  0.9972  0.0135  -7.6906   0.0000   0.1191
 -20.500  -0.7895   0.10826   0.10516  -0.0718  0.9953  0.0135  -7.8600   0.0000   0.1089
 -20.000  -0.7966   0.09698   0.09367  -0.0806  0.9924  0.0135  -7.9161   0.0000   0.1003
 -19.500  -0.8075   0.08797   0.08448  -0.0850  0.9884  0.0136  -7.9278   0.0000   0.0981
 -19.000  -0.8094   0.08005   0.07639  -0.0893  0.9809  0.0136  -7.8710   0.0000   0.0944
 -18.500  -0.7502   0.07005   0.06561  -0.1076  0.8119  0.0137  -7.5723   0.0000   0.0604
 -18.000  -0.7446   0.06471   0.05992  -0.1098  0.7666  0.0138  -7.4371   0.0000   0.0576
 -17.500  -0.7344   0.06000   0.05479  -0.1118  0.6845  0.0138  -7.2704   0.0000   0.0540
 -17.000  -0.7249   0.05558   0.05009  -0.1129  0.6508  0.0139  -7.1325   0.0000   0.0516
 -16.500  -0.7133   0.05158   0.04589  -0.1136  0.6344  0.0140  -6.9718   0.0000   0.0491
 -16.000  -0.7002   0.04786   0.04206  -0.1140  0.6272  0.0141  -6.7910   0.0000   0.0467
 -15.500  -0.6827   0.04462   0.03869  -0.1142  0.6197  0.0142  -6.5826   0.0000   0.0429
 -15.000  -0.6642   0.04148   0.03543  -0.1145  0.6115  0.0143  -6.3658   0.0000   0.0386
 -14.500  -0.6434   0.03871   0.03259  -0.1143  0.6090  0.0144  -6.1349   0.0000   0.0340
 -14.000  -0.6216   0.03605   0.02987  -0.1142  0.6057  0.0146  -5.8992   0.0000   0.0286
 -13.500  -0.5961   0.03370   0.02745  -0.1140  0.6022  0.0147  -5.6488   0.0000   0.0215
 -13.000  -0.5696   0.03144   0.02512  -0.1140  0.5988  0.0148  -5.3962   0.0000   0.0130
 -12.500  -0.5390   0.02945   0.02305  -0.1141  0.5949  0.0150  -5.1307   0.0000   0.0016
 -12.000  -0.5056   0.02751   0.02104  -0.1147  0.5907  0.0151  -4.8604   0.0000  -0.0138
 -11.500  -0.4669   0.02580   0.01928  -0.1158  0.5880  0.0153  -4.5764   0.0000  -0.0357
 -11.000  -0.4291   0.02410   0.01753  -0.1167  0.5869  0.0155  -4.3010   0.0000  -0.0603
 -10.500  -0.3936   0.02262   0.01602  -0.1166  0.5855  0.0158  -4.0363   0.0000  -0.0854
 -10.000  -0.3596   0.02117   0.01454  -0.1160  0.5839  0.0161  -3.7816   0.0000  -0.1128
  -9.500  -0.3253   0.01987   0.01321  -0.1152  0.5821  0.0164  -3.5283   0.0000  -0.1454
  -9.000  -0.2919   0.01865   0.01196  -0.1139  0.5800  0.0168  -3.2826   0.0000  -0.1830
  -8.500  -0.2648   0.01725   0.01053  -0.1117  0.5781  0.0174  -3.0698   0.0000  -0.2157
  -8.000  -0.2387   0.01595   0.00921  -0.1091  0.5762  0.0184  -2.8789   0.0000  -0.2519
  -7.500  -0.2131   0.01476   0.00800  -0.1061  0.5742  0.0196  -2.6977   0.0000  -0.2942
  -7.000  -0.1993   0.01347   0.00666  -0.1012  0.5718  0.0215  -2.5515   0.0000  -0.3031
  -6.500  -0.1859   0.01273   0.00592  -0.0944  0.5689  0.0265  -2.4030   0.0000  -0.3018
  -6.000  -0.1776   0.01217   0.00546  -0.0861  0.5652  0.0479  -2.2642   0.0000  -0.2771
  -5.500  -0.1548   0.01144   0.00492  -0.0803  0.5645  0.0855  -2.0871   0.0000  -0.3126
  -5.000  -0.1289   0.01065   0.00438  -0.0750  0.5631  0.1397  -1.9024   0.0000  -0.3788
  -4.500  -0.1058   0.00966   0.00375  -0.0690  0.5601  0.2289  -1.7269   0.0000  -0.4528
  -4.000  -0.0853   0.00850   0.00308  -0.0626  0.5569  0.3576  -1.5599   0.0000  -0.5385
  -3.500  -0.0594   0.00756   0.00268  -0.0568  0.5544  0.5055  -1.3845   0.0000  -0.7733
  -2.500   0.0464   0.00772   0.00284  -0.0550  0.5470  0.5487  -0.9456   0.0000   1.4875
  -2.000   0.1030   0.00811   0.00317  -0.0548  0.5424  0.5600  -0.8767   0.0000   0.7984
  -1.500   0.1550   0.00816   0.00328  -0.0537  0.5409  0.5707  -0.9261   0.0000   0.6019
  -1.000   0.2084   0.00821   0.00332  -0.0529  0.5385  0.5749  -0.9765   0.0000   0.5043
  -0.500   0.2613   0.00819   0.00328  -0.0522  0.5354  0.5772  -1.0269   0.0000   0.4467
   0.000   0.3126   0.00817   0.00323  -0.0510  0.5312  0.5795  -1.0793   0.0000   0.4082
   0.500   0.3606   0.00820   0.00320  -0.0492  0.5258  0.5814  -1.1304   0.0000   0.3798
   1.000   0.4084   0.00819   0.00315  -0.0475  0.5196  0.5822  -1.1894   0.0000   0.3581
   1.500   0.4569   0.00811   0.00307  -0.0458  0.5142  0.5828  -1.2512   0.0000   0.3411
   2.000   0.5058   0.00802   0.00294  -0.0444  0.5069  0.5846  -1.3137   0.0000   0.3276
   2.500   0.5564   0.00798   0.00287  -0.0434  0.4987  0.5871  -1.3779   0.0000   0.3170
   3.000   0.6069   0.00801   0.00287  -0.0424  0.4861  0.5889  -1.4462   0.0000   0.3080
   3.500   0.6542   0.00815   0.00294  -0.0408  0.4665  0.5906  -1.5125   0.0000   0.2997
   4.000   0.6971   0.00846   0.00314  -0.0384  0.4392  0.5921  -1.5756   0.0000   0.2917
   4.500   0.7402   0.00887   0.00343  -0.0363  0.4119  0.5935  -1.6391   0.0000   0.2848
   5.000   0.7846   0.00932   0.00378  -0.0345  0.3896  0.5953  -1.7039   0.0000   0.2791
   5.500   0.8313   0.00976   0.00415  -0.0334  0.3709  0.5969  -1.7831   0.0000   0.2745
   6.000   0.8805   0.01021   0.00455  -0.0328  0.3544  0.5983  -1.8650   0.0000   0.2709
   6.500   0.9325   0.01068   0.00497  -0.0330  0.3402  0.5997  -1.9503   0.0000   0.2683
   8.000   1.0984   0.01234   0.00654  -0.0365  0.3024  0.6037  -2.2199   0.0000   0.2641
   8.500   1.1557   0.01307   0.00724  -0.0386  0.2900  0.6047  -2.3130   0.0000   0.2634
   9.000   1.2137   0.01375   0.00793  -0.0408  0.2801  0.6056  -2.4251   0.0000   0.2629
   9.500   1.2608   0.01477   0.00893  -0.0415  0.2678  0.6076  -2.5285   0.0000   0.2614
  10.000   1.3083   0.01563   0.00984  -0.0422  0.2600  0.6117  -2.6339   0.0000   0.2598
  10.500   1.3405   0.01716   0.01138  -0.0411  0.2499  0.6150  -2.7206   0.0000   0.2572
  11.000   1.3773   0.01854   0.01283  -0.0407  0.2435  0.6178  -2.8137   0.0000   0.2551
  11.500   1.4000   0.02102   0.01534  -0.0396  0.2336  0.6204  -2.8892   0.0000   0.2527
  12.000   1.4290   0.02309   0.01748  -0.0390  0.2272  0.6229  -2.9766   0.0000   0.2506
  12.500   1.4450   0.02616   0.02056  -0.0377  0.2186  0.6253  -3.0461   0.0000   0.2483
  13.000   1.4662   0.02893   0.02340  -0.0370  0.2120  0.6275  -3.1288   0.0000   0.2462
  13.500   1.4783   0.03243   0.02692  -0.0359  0.2044  0.6292  -3.2049   0.0000   0.2441
  14.000   1.4941   0.03569   0.03026  -0.0352  0.1981  0.6341  -3.2902   0.0000   0.2422
  14.500   1.5109   0.03892   0.03358  -0.0347  0.1922  0.6396  -3.3775   0.0000   0.2404
  15.000   1.5172   0.04303   0.03773  -0.0338  0.1844  0.6444  -3.4487   0.0000   0.2384
  15.500   1.5397   0.04582   0.04061  -0.0336  0.1799  0.6493  -3.5536   0.0000   0.2367
  16.000   1.5473   0.04995   0.04477  -0.0330  0.1725  0.6530  -3.6333   0.0000   0.2350
  16.500   1.5656   0.05325   0.04816  -0.0330  0.1668  0.6631  -3.7345   0.0000   0.2335
  17.000   1.5744   0.05751   0.05250  -0.0328  0.1602  0.6720  -3.8206   0.0000   0.2320
  17.500   1.5867   0.06144   0.05650  -0.0329  0.1541  0.6835  -3.9137   0.0000   0.2305
  18.000   1.5941   0.06601   0.06118  -0.0331  0.1489  0.6984  -3.9963   0.0000   0.2292
  18.500   1.5950   0.07140   0.06667  -0.0335  0.1425  0.7202  -4.0633   0.0000   0.2281
  19.000   1.6117   0.07525   0.07073  -0.0344  0.1381  0.7599  -4.1649   0.0000   0.2271
  19.500   1.6146   0.08154   0.07753  -0.0368  0.1309  0.9359  -4.2311   0.0000   0.2271
  20.000   1.6311   0.08691   0.08300  -0.0390  0.1262  1.0000  -4.3291   0.0000   0.2268
  20.500   1.6214   0.09376   0.08989  -0.0400  0.1198  1.0000  -4.3685   0.0000   0.2261
  21.000   1.6221   0.09945   0.09566  -0.0411  0.1154  1.0000  -4.4350   0.0000   0.2254
  21.500   1.6090   0.10697   0.10325  -0.0428  0.1103  1.0000  -4.4644   0.0000   0.2251
  22.000   1.6018   0.11381   0.11019  -0.0447  0.1063  1.0000  -4.5058   0.0000   0.2249
  22.500   1.5895   0.12139   0.11785  -0.0470  0.1018  1.0000  -4.5920   0.0000   0.2251
  23.000   1.5757   0.12927   0.12581  -0.0498  0.0971  1.0000  -4.6797   0.0000   0.2255
  23.500   1.5675   0.13645   0.13308  -0.0528  0.0929  1.0000  -4.7912   0.0000   0.2260
  24.000   1.5518   0.14471   0.14142  -0.0564  0.0883  1.0000  -4.8697   0.0000   0.2271
  24.500   1.5501   0.15102   0.14781  -0.0596  0.0845  1.0000  -5.0031   0.0000   0.2276
  25.000   1.5367   0.15912   0.15596  -0.0639  0.0801  1.0000  -5.0832   0.0000   0.2290
  25.500   1.5327   0.16581   0.16275  -0.0678  0.0767  1.0000  -5.2015   0.0000   0.2300
  26.000   1.5171   0.17428   0.17126  -0.0728  0.0725  1.0000  -5.2630   0.0000   0.2321
  26.500   1.5208   0.17972   0.17680  -0.0766  0.0698  1.0000  -5.4133   0.0000   0.2328
  27.000   1.5111   0.18735   0.18448  -0.0818  0.0664  1.0000  -5.4955   0.0000   0.2347
  27.500   1.5067   0.19414   0.19136  -0.0867  0.0635  1.0000  -5.6005   0.0000   0.2363
  28.000   1.5040   0.20060   0.19786  -0.0916  0.0603  1.0000  -5.7127   0.0000   0.2379
  28.500   1.4985   0.20756   0.20489  -0.0970  0.0573  1.0000  -5.8077   0.0000   0.2399
  29.000   1.4936   0.21438   0.21178  -0.1025  0.0542  1.0000  -5.9092   0.0000   0.2419
  29.500   1.4925   0.22044   0.21788  -0.1077  0.0513  1.0000  -6.0306   0.0000   0.2435
  30.000   1.4875   0.22718   0.22470  -0.1135  0.0483  1.0000  -6.1248   0.0000   0.2457
  30.500   1.4853   0.23337   0.23094  -0.1191  0.0452  1.0000  -6.2342   0.0000   0.2476
  31.000   1.4757   0.24097   0.23857  -0.1257  0.0415  1.0000  -6.2900   0.0000   0.2506
  31.500   1.4685   0.24812   0.24579  -0.1322  0.0378  1.0000  -6.3556   0.0000   0.2534
  32.000   1.4570   0.25614   0.25385  -0.1393  0.0332  1.0000  -6.3834   0.0000   0.2569
  32.500   1.4411   0.26515   0.26287  -0.1473  0.0279  1.0000  -6.3668   0.0000   0.2614
  33.000   1.4245   0.27441   0.27215  -0.1554  0.0228  1.0000  -6.3297   0.0000   0.2663
  33.500   1.4067   0.28409   0.28183  -0.1639  0.0178  1.0000  -6.2649   0.0000   0.2717
  34.000   1.3900   0.29374   0.29148  -0.1725  0.0131  1.0000  -6.1894   0.0000   0.2772
  34.500   1.3795   0.30202   0.29978  -0.1801  0.0104  1.0000  -6.1556   0.0000   0.2816
  35.000   1.3732   0.30931   0.30709  -0.1872  0.0091  1.0000  -6.1619   0.0000   0.2851
  35.500   1.3740   0.31467   0.31250  -0.1932  0.0084  1.0000  -6.2419   0.0000   0.2870
  36.000   1.3721   0.32068   0.31852  -0.1997  0.0077  1.0000  -6.2851   0.0000   0.2896
  36.500   1.3756   0.32509   0.32297  -0.2052  0.0073  1.0000  -6.3918   0.0000   0.2907
  37.000   1.3778   0.32972   0.32766  -0.2109  0.0069  1.0000  -6.4897   0.0000   0.2920
  37.500   1.3807   0.33401   0.33197  -0.2166  0.0066  1.0000  -6.6038   0.0000   0.2931
  38.000   1.3849   0.33777   0.33572  -0.2219  0.0062  1.0000  -6.7367   0.0000   0.2938
  38.500   1.3901   0.34111   0.33910  -0.2271  0.0059  1.0000  -6.8958   0.0000   0.2941
  39.000   1.3924   0.34511   0.34316  -0.2327  0.0057  1.0000  -7.0155   0.0000   0.2951
  39.500   1.3956   0.34872   0.34681  -0.2382  0.0054  1.0000  -7.1532   0.0000   0.2956
  40.000   1.3983   0.35231   0.35044  -0.2437  0.0051  1.0000  -7.2867   0.0000   0.2963
  40.500   1.4008   0.35572   0.35387  -0.2492  0.0049  1.0000  -7.4192   0.0000   0.2968
  41.000   1.4076   0.35773   0.35586  -0.2539  0.0046  1.0000  -7.6261   0.0000   0.2961
  41.500   1.4085   0.36119   0.35938  -0.2596  0.0045  1.0000  -7.7360   0.0000   0.2969
  42.000   1.4081   0.36472   0.36299  -0.2654  0.0043  1.0000  -7.8231   0.0000   0.2979
  42.500   1.4076   0.36784   0.36617  -0.2713  0.0040  1.0000  -7.9103   0.0000   0.2989
  43.000   1.4084   0.37030   0.36867  -0.2769  0.0038  1.0000  -8.0241   0.0000   0.2994
  43.500   1.4085   0.37277   0.37117  -0.2826  0.0037  1.0000  -8.1280   0.0000   0.2999
  44.000   1.4109   0.37435   0.37275  -0.2878  0.0035  1.0000  -8.2843   0.0000   0.2997
  44.500   1.4107   0.37654   0.37499  -0.2934  0.0033  1.0000  -8.3812   0.0000   0.3001
  45.000   1.4026   0.38092   0.37949  -0.3003  0.0031  1.0000  -8.3190   0.0000   0.3027
  50.000   0.6789   0.48987   0.48923  -0.1938  0.0000  1.0000  -1.1025   0.0000   0.4097


