xflr5 v6.33

 Calculated polar for: Bell A821201 v4

 1 1 Reynolds number fixed          Mach number fixed         

 xtrf =   1.000 (top)        1.000 (bottom)
 Mach =   0.000     Re =     0.900 e 6     Ncrit =   9.000

  alpha     CL        CD       CDp       Cm    Top Xtr Bot Xtr   Cpmin    Chinge    XCp    
 ------- -------- --------- --------- -------- ------- ------- -------- --------- ---------
 -28.000  -0.3498   0.23902   0.23729   0.0023  1.0000  0.0113  -1.0648   0.0000   0.2101
 -27.500  -0.3404   0.23559   0.23385   0.0001  1.0000  0.0116  -1.0288   0.0000   0.2037
 -27.000  -0.3313   0.23188   0.23015  -0.0022  1.0000  0.0121  -1.0080   0.0000   0.1968
 -26.500  -0.3226   0.22784   0.22611  -0.0044  1.0000  0.0129  -1.0171   0.0000   0.1894
 -26.000  -0.3204   0.22161   0.21987  -0.0074  1.0000  0.0137  -1.2144   0.0000   0.1790
 -25.500  -0.3156   0.21634   0.21461  -0.0098  1.0000  0.0139  -1.3080   0.0000   0.1704
 -25.000  -0.3027   0.21337   0.21165  -0.0114  1.0000  0.0140  -1.2181   0.0000   0.1636
 -24.500  -0.2916   0.21020   0.20849  -0.0132  1.0000  0.0143  -1.1597   0.0000   0.1554
 -24.000  -0.2814   0.20678   0.20507  -0.0151  1.0000  0.0147  -1.1215   0.0000   0.1464
 -23.500  -0.2587   0.20040   0.19867  -0.0218  0.9985  0.0155  -1.0956   0.0000   0.1127
 -23.000  -0.2497   0.19045   0.18869  -0.0303  0.9955  0.0169  -1.4069   0.0000   0.0715
 -21.000  -0.1030   0.15494   0.15201  -0.0808  0.7342  0.0204  -1.4923   0.0000  -0.6694
 -20.500  -0.0840   0.15206   0.14882  -0.0833  0.6694  0.0206  -1.3950   0.0000  -0.9028
 -20.000  -0.0674   0.14907   0.14571  -0.0857  0.6524  0.0210  -1.3282   0.0000  -1.2202
 -19.500  -0.0539   0.14566   0.14224  -0.0883  0.6434  0.0216  -1.3023   0.0000  -1.6318
 -19.000  -0.0451   0.14144   0.13795  -0.0913  0.6356  0.0228  -1.3435   0.0000  -2.0648
 -18.500  -0.3354   0.14100   0.13787  -0.0770  0.7447  0.0181  -3.5613   0.0000  -0.0569
 -18.000  -0.3019   0.13920   0.13571  -0.0799  0.6669  0.0191  -3.2240   0.0000  -0.0959
 -17.500  -0.2846   0.13400   0.13044  -0.0837  0.6504  0.0214  -3.0591   0.0000  -0.1272
 -16.500  -0.6877   0.05353   0.04783  -0.1154  0.6889  0.0164  -6.6460   0.0000   0.0397
 -16.000  -0.6693   0.05001   0.04401  -0.1165  0.6569  0.0165  -6.4513   0.0000   0.0342
 -15.500  -0.6483   0.04687   0.04070  -0.1171  0.6450  0.0166  -6.2401   0.0000   0.0282
 -15.000  -0.6241   0.04404   0.03770  -0.1177  0.6344  0.0166  -6.0140   0.0000   0.0206
 -14.500  -0.5988   0.04148   0.03506  -0.1179  0.6297  0.0167  -5.7806   0.0000   0.0127
 -14.000  -0.5719   0.03904   0.03251  -0.1181  0.6244  0.0168  -5.5417   0.0000   0.0032
 -13.500  -0.5409   0.03690   0.03027  -0.1185  0.6190  0.0169  -5.2880   0.0000  -0.0094
 -13.000  -0.5115   0.03461   0.02787  -0.1189  0.6137  0.0171  -5.0606   0.0000  -0.0229
 -12.500  -0.4820   0.03223   0.02543  -0.1196  0.6106  0.0173  -4.8301   0.0000  -0.0388
 -12.000  -0.4498   0.03007   0.02323  -0.1203  0.6085  0.0175  -4.5849   0.0000  -0.0587
 -11.500  -0.4174   0.02805   0.02117  -0.1209  0.6061  0.0178  -4.3377   0.0000  -0.0813
 -11.000  -0.3852   0.02634   0.01941  -0.1208  0.6036  0.0181  -4.0906   0.0000  -0.1061
 -10.500  -0.3531   0.02472   0.01775  -0.1204  0.6011  0.0186  -3.8461   0.0000  -0.1346
 -10.000  -0.3199   0.02328   0.01627  -0.1198  0.5986  0.0192  -3.6017   0.0000  -0.1696
  -9.500  -0.2882   0.02187   0.01480  -0.1189  0.5959  0.0197  -3.3699   0.0000  -0.2091
  -9.000  -0.2552   0.02062   0.01349  -0.1177  0.5924  0.0202  -3.1396   0.0000  -0.2603
  -8.500  -0.2287   0.01914   0.01198  -0.1159  0.5891  0.0215  -2.9401   0.0000  -0.3078
  -8.000  -0.2020   0.01790   0.01073  -0.1134  0.5877  0.0230  -2.7625   0.0000  -0.3645
  -7.500  -0.1811   0.01656   0.00940  -0.1098  0.5865  0.0255  -2.6061   0.0000  -0.4110
  -7.000  -0.1672   0.01509   0.00797  -0.1052  0.5851  0.0321  -2.4685   0.0000  -0.4333
  -6.500  -0.1752   0.01358   0.00656  -0.0962  0.5834  0.0539  -2.3747   0.0000  -0.3462
  -6.000  -0.1761   0.01284   0.00597  -0.0863  0.5812  0.0865  -2.2534   0.0000  -0.2831
  -5.500  -0.1590   0.01199   0.00536  -0.0797  0.5792  0.1395  -2.0885   0.0000  -0.2946
  -5.000  -0.1408   0.01094   0.00469  -0.0733  0.5770  0.2310  -1.9221   0.0000  -0.3140
  -4.500  -0.1267   0.00958   0.00388  -0.0660  0.5739  0.3697  -1.7663   0.0000  -0.3140
  -4.000  -0.1002   0.00882   0.00361  -0.0604  0.5689  0.5120  -1.5841   0.0000  -0.4002
  -3.500  -0.0442   0.00907   0.00381  -0.0602  0.5644  0.5381  -1.3466   0.0000  -1.2010
  -3.000   0.0079   0.00924   0.00401  -0.0590  0.5626  0.5537  -1.1256   0.0000   8.1511
  -2.500   0.0600   0.00950   0.00427  -0.0577  0.5599  0.5675  -0.9139   0.0000   1.2523
  -2.000   0.1142   0.00990   0.00471  -0.0568  0.5559  0.5787  -0.8820   0.0000   0.7616
  -1.500   0.1681   0.01010   0.00483  -0.0561  0.5522  0.5826  -0.9325   0.0000   0.5886
  -1.000   0.2197   0.00988   0.00454  -0.0552  0.5486  0.5863  -0.9818   0.0000   0.5015
  -0.500   0.2780   0.01001   0.00463  -0.0557  0.5435  0.5899  -1.0352   0.0000   0.4476
   0.000   0.3300   0.00996   0.00459  -0.0548  0.5407  0.5923  -1.0884   0.0000   0.4112
   0.500   0.3794   0.00983   0.00446  -0.0534  0.5367  0.5941  -1.1404   0.0000   0.3841
   1.000   0.4283   0.00972   0.00433  -0.0518  0.5315  0.5960  -1.2016   0.0000   0.3632
   1.500   0.4744   0.00960   0.00414  -0.0497  0.5246  0.5975  -1.2619   0.0000   0.3458
   2.000   0.5215   0.00954   0.00407  -0.0479  0.5184  0.5990  -1.3232   0.0000   0.3319
   2.500   0.5635   0.00942   0.00396  -0.0450  0.5115  0.6008  -1.3813   0.0000   0.3189
   3.000   0.6041   0.00937   0.00385  -0.0418  0.5026  0.6021  -1.4416   0.0000   0.3074
   3.500   0.6505   0.00936   0.00384  -0.0400  0.4921  0.6032  -1.5072   0.0000   0.2988
   4.000   0.6914   0.00945   0.00387  -0.0370  0.4759  0.6043  -1.5690   0.0000   0.2901
   4.500   0.7283   0.00970   0.00402  -0.0334  0.4510  0.6051  -1.6278   0.0000   0.2816
   5.500   0.8032   0.01055   0.00463  -0.0273  0.4017  0.6088  -1.7562   0.0000   0.2681
   6.000   0.8465   0.01104   0.00505  -0.0257  0.3819  0.6110  -1.8322   0.0000   0.2637
   6.500   0.8906   0.01162   0.00557  -0.0245  0.3639  0.6129  -1.9093   0.0000   0.2601
   7.000   0.9382   0.01221   0.00612  -0.0241  0.3486  0.6147  -1.9903   0.0000   0.2576
   7.500   0.9893   0.01279   0.00671  -0.0246  0.3359  0.6165  -2.0750   0.0000   0.2560
   8.000   1.0391   0.01358   0.00748  -0.0252  0.3231  0.6184  -2.1588   0.0000   0.2547
   8.500   1.0916   0.01438   0.00828  -0.0266  0.3113  0.6204  -2.2458   0.0000   0.2540
   9.000   1.1440   0.01531   0.00922  -0.0283  0.2998  0.6224  -2.3427   0.0000   0.2536
   9.500   1.1942   0.01670   0.01060  -0.0305  0.2867  0.6245  -2.4472   0.0000   0.2536
  10.000   1.2424   0.01787   0.01182  -0.0320  0.2778  0.6267  -2.5511   0.0000   0.2529
  10.500   1.2748   0.01995   0.01390  -0.0321  0.2671  0.6285  -2.6351   0.0000   0.2513
  11.000   1.3112   0.02180   0.01582  -0.0326  0.2590  0.6303  -2.7249   0.0000   0.2500
  11.500   1.3366   0.02454   0.01859  -0.0327  0.2495  0.6345  -2.7993   0.0000   0.2485
  12.000   1.3680   0.02671   0.02086  -0.0329  0.2426  0.6382  -2.8875   0.0000   0.2470
  12.500   1.3813   0.03023   0.02441  -0.0321  0.2332  0.6416  -2.9491   0.0000   0.2450
  13.000   1.4072   0.03274   0.02702  -0.0319  0.2270  0.6451  -3.0343   0.0000   0.2433
  13.500   1.4190   0.03633   0.03063  -0.0310  0.2188  0.6485  -3.1054   0.0000   0.2413
  14.000   1.4376   0.03941   0.03378  -0.0306  0.2120  0.6517  -3.1927   0.0000   0.2395
  14.500   1.4522   0.04291   0.03732  -0.0302  0.2044  0.6563  -3.2742   0.0000   0.2378
  15.000   1.4681   0.04640   0.04090  -0.0300  0.1979  0.6628  -3.3585   0.0000   0.2363
  15.500   1.4856   0.04977   0.04437  -0.0299  0.1915  0.6693  -3.4500   0.0000   0.2347
  16.000   1.4943   0.05391   0.04853  -0.0296  0.1841  0.6754  -3.5285   0.0000   0.2331
  16.500   1.5154   0.05717   0.05194  -0.0300  0.1789  0.6859  -3.6319   0.0000   0.2319
  17.000   1.5248   0.06147   0.05630  -0.0301  0.1717  0.6973  -3.7148   0.0000   0.2305
  17.500   1.5393   0.06546   0.06046  -0.0306  0.1664  0.7149  -3.8097   0.0000   0.2294
  18.000   1.5504   0.06986   0.06498  -0.0312  0.1599  0.7414  -3.8976   0.0000   0.2283
  19.000   1.5802   0.08085   0.07664  -0.0363  0.1478  1.0000  -4.0813   0.0000   0.2285
  19.500   1.5784   0.08673   0.08256  -0.0369  0.1419  1.0000  -4.1384   0.0000   0.2275
  20.000   1.5834   0.09194   0.08788  -0.0379  0.1366  1.0000  -4.2108   0.0000   0.2267
  20.500   1.5712   0.09926   0.09523  -0.0392  0.1303  1.0000  -4.2396   0.0000   0.2262
  21.000   1.5743   0.10484   0.10094  -0.0406  0.1259  1.0000  -4.3080   0.0000   0.2256
  21.500   1.5609   0.11256   0.10871  -0.0426  0.1200  1.0000  -4.3331   0.0000   0.2256
  22.000   1.5582   0.11893   0.11519  -0.0446  0.1155  1.0000  -4.3833   0.0000   0.2255
  22.500   1.5462   0.12664   0.12296  -0.0473  0.1105  1.0000  -4.4306   0.0000   0.2259
  23.000   1.5425   0.13322   0.12963  -0.0499  0.1061  1.0000  -4.5503   0.0000   0.2261
  23.500   1.5323   0.14074   0.13722  -0.0531  0.1014  1.0000  -4.6455   0.0000   0.2269
  24.000   1.5228   0.14825   0.14482  -0.0567  0.0968  1.0000  -4.7442   0.0000   0.2279
  24.500   1.5174   0.15522   0.15187  -0.0604  0.0925  1.0000  -4.8576   0.0000   0.2288
  25.000   1.5105   0.16241   0.15912  -0.0644  0.0881  1.0000  -4.9619   0.0000   0.2300
  25.500   1.5078   0.16896   0.16576  -0.0684  0.0841  1.0000  -5.0823   0.0000   0.2311
  26.000   1.4979   0.17663   0.17348  -0.0732  0.0799  1.0000  -5.1667   0.0000   0.2329
  26.500   1.4999   0.18243   0.17937  -0.0772  0.0766  1.0000  -5.3053   0.0000   0.2338
  27.000   1.4925   0.18975   0.18671  -0.0823  0.0729  1.0000  -5.3957   0.0000   0.2357
  27.500   1.4920   0.19595   0.19302  -0.0869  0.0701  1.0000  -5.5175   0.0000   0.2370
  28.000   1.4905   0.20227   0.19939  -0.0919  0.0668  1.0000  -5.6329   0.0000   0.2386
  28.500   1.4865   0.20901   0.20621  -0.0972  0.0636  1.0000  -5.7317   0.0000   0.2405
  29.000   1.4835   0.21554   0.21279  -0.1026  0.0602  1.0000  -5.8416   0.0000   0.2423
  29.500   1.4813   0.22184   0.21916  -0.1080  0.0572  1.0000  -5.9535   0.0000   0.2442
  30.000   1.4772   0.22847   0.22587  -0.1138  0.0540  1.0000  -6.0510   0.0000   0.2463
  30.500   1.4762   0.23447   0.23192  -0.1193  0.0511  1.0000  -6.1659   0.0000   0.2481
  31.000   1.4696   0.24158   0.23909  -0.1256  0.0477  1.0000  -6.2392   0.0000   0.2508
  31.500   1.4636   0.24855   0.24614  -0.1320  0.0444  1.0000  -6.3115   0.0000   0.2535
  32.000   1.4582   0.25539   0.25301  -0.1384  0.0406  1.0000  -6.3834   0.0000   0.2561
  32.500   1.4477   0.26326   0.26092  -0.1456  0.0363  1.0000  -6.4102   0.0000   0.2597
  33.000   1.4354   0.27154   0.26924  -0.1531  0.0314  1.0000  -6.4119   0.0000   0.2637
  33.500   1.4181   0.28100   0.27871  -0.1616  0.0257  1.0000  -6.3582   0.0000   0.2689
  34.000   1.4006   0.29070   0.28841  -0.1702  0.0203  1.0000  -6.2821   0.0000   0.2744
  34.500   1.3841   0.30037   0.29806  -0.1788  0.0155  1.0000  -6.1963   0.0000   0.2800
  35.000   1.3759   0.30808   0.30578  -0.1862  0.0125  1.0000  -6.1836   0.0000   0.2840
  35.500   1.3717   0.31475   0.31244  -0.1930  0.0110  1.0000  -6.2043   0.0000   0.2871
  36.000   1.3730   0.31997   0.31769  -0.1989  0.0100  1.0000  -6.2834   0.0000   0.2888
  36.500   1.3752   0.32468   0.32239  -0.2047  0.0092  1.0000  -6.3731   0.0000   0.2903
  37.000   1.3792   0.32883   0.32659  -0.2102  0.0087  1.0000  -6.4948   0.0000   0.2912
  37.500   1.3826   0.33297   0.33076  -0.2157  0.0082  1.0000  -6.6130   0.0000   0.2922
  38.000   1.3880   0.33640   0.33416  -0.2210  0.0077  1.0000  -6.7617   0.0000   0.2926
  38.500   1.3928   0.33983   0.33764  -0.2262  0.0073  1.0000  -6.9145   0.0000   0.2930
  39.000   1.3962   0.34354   0.34141  -0.2317  0.0070  1.0000  -7.0483   0.0000   0.2937
  39.500   1.3996   0.34707   0.34499  -0.2371  0.0067  1.0000  -7.1863   0.0000   0.2942
  40.000   1.4029   0.35046   0.34839  -0.2425  0.0064  1.0000  -7.3285   0.0000   0.2947
  40.500   1.4117   0.35194   0.34983  -0.2470  0.0060  1.0000  -7.5634   0.0000   0.2935
  41.000   1.4108   0.35630   0.35430  -0.2530  0.0058  1.0000  -7.6386   0.0000   0.2949
  41.500   1.4094   0.36051   0.35860  -0.2591  0.0055  1.0000  -7.7021   0.0000   0.2963
  42.000   1.4082   0.36421   0.36237  -0.2651  0.0053  1.0000  -7.7698   0.0000   0.2976
  42.500   1.4091   0.36695   0.36515  -0.2708  0.0050  1.0000  -7.8816   0.0000   0.2982
  43.000   1.4124   0.36873   0.36693  -0.2760  0.0048  1.0000  -8.0454   0.0000   0.2980
  43.500   1.4087   0.37223   0.37052  -0.2823  0.0045  1.0000  -8.0582   0.0000   0.2996
  45.000   0.7154   0.46447   0.46357  -0.1738  0.0005  1.0000  -1.0650   0.0000   0.3965
  45.500   0.7132   0.46763   0.46675  -0.1762  0.0004  1.0000  -1.0781   0.0000   0.3979
  46.000   0.7107   0.46962   0.46875  -0.1786  0.0003  1.0000  -1.1189   0.0000   0.3991
  46.500   0.7080   0.47051   0.46966  -0.1809  0.0003  1.0000  -1.1843   0.0000   0.4002
  47.000   0.7044   0.47872   0.47787  -0.1828  0.0003  1.0000  -1.0317   0.0000   0.4021
  47.500   0.7011   0.48516   0.48433  -0.1846  0.0002  1.0000  -0.9559   0.0000   0.4036
  48.000   0.6975   0.48788   0.48706  -0.1866  0.0001  1.0000  -0.9631   0.0000   0.4049
  48.500   0.6935   0.48972   0.48892  -0.1886  0.0001  1.0000  -0.9840   0.0000   0.4062
  49.000   0.6893   0.49089   0.49010  -0.1906  0.0001  1.0000  -1.0131   0.0000   0.4075
  49.500   0.6848   0.49125   0.49047  -0.1926  0.0001  1.0000  -1.0544   0.0000   0.4087
  50.000   0.6802   0.49068   0.48992  -0.1945  0.0000  1.0000  -1.1114   0.0000   0.4097


