xflr5 v6.33

 Calculated polar for: Bell A821201 v4

 1 1 Reynolds number fixed          Mach number fixed         

 xtrf =   1.000 (top)        1.000 (bottom)
 Mach =   0.000     Re =     3.800 e 6     Ncrit =   9.000

  alpha     CL        CD       CDp       Cm    Top Xtr Bot Xtr   Cpmin    Chinge    XCp    
 ------- -------- --------- --------- -------- ------- ------- -------- --------- ---------
 -26.000  -0.7447   0.18830   0.18669  -0.0330  0.9940  0.0096  -8.2026   0.0000   0.1372
 -25.500  -0.7662   0.17467   0.17292  -0.0431  0.9931  0.0097  -8.6320   0.0000   0.1274
 -25.000  -0.7842   0.16255   0.16067  -0.0518  0.9919  0.0098  -8.9277   0.0000   0.1198
 -24.500  -0.8176   0.15192   0.14992  -0.0557  0.9904  0.0099  -9.2342   0.0000   0.1206
 -24.000  -0.8460   0.14054   0.13840  -0.0618  0.9896  0.0099  -9.4943   0.0000   0.1181
 -23.500  -0.8697   0.12954   0.12726  -0.0681  0.9883  0.0100  -9.6827   0.0000   0.1151
 -23.000  -0.8968   0.11805   0.11562  -0.0747  0.9864  0.0100  -9.8735   0.0000   0.1123
 -22.500  -0.9218   0.10697   0.10438  -0.0810  0.9834  0.0101  -10.0166   0.0000   0.1099
 -22.000  -0.9397   0.09698   0.09424  -0.0869  0.9755  0.0101  -10.0776   0.0000   0.1073
 -21.500  -0.9366   0.08749   0.08391  -0.0956  0.7902  0.0101  -10.0050   0.0000   0.0990
 -21.000  -0.9498   0.07947   0.07570  -0.0993  0.7724  0.0102  -9.9813   0.0000   0.0983
 -20.500  -0.9542   0.07280   0.06886  -0.1022  0.7520  0.0102  -9.8813   0.0000   0.0974
 -20.000  -0.9529   0.06686   0.06252  -0.1050  0.6598  0.0102  -9.7380   0.0000   0.0958
 -19.500  -0.9502   0.06140   0.05688  -0.1070  0.6335  0.0103  -9.5753   0.0000   0.0948
 -19.000  -0.9439   0.05655   0.05189  -0.1084  0.6197  0.0103  -9.3835   0.0000   0.0938
 -18.500  -0.9337   0.05232   0.04755  -0.1094  0.6083  0.0104  -9.1645   0.0000   0.0927
 -18.000  -0.9206   0.04849   0.04361  -0.1100  0.6008  0.0104  -8.9261   0.0000   0.0915
 -17.500  -0.9058   0.04494   0.03995  -0.1105  0.5908  0.0104  -8.6773   0.0000   0.0901
 -17.000  -0.8894   0.04167   0.03661  -0.1107  0.5870  0.0105  -8.4195   0.0000   0.0887
 -16.500  -0.8677   0.03898   0.03386  -0.1106  0.5845  0.0105  -8.1338   0.0000   0.0865
 -16.000  -0.8477   0.03620   0.03101  -0.1104  0.5813  0.0105  -7.8594   0.0000   0.0846
 -15.500  -0.8219   0.03395   0.02869  -0.1101  0.5772  0.0106  -7.5581   0.0000   0.0816
 -15.000  -0.7981   0.03158   0.02625  -0.1098  0.5723  0.0106  -7.2699   0.0000   0.0787
 -14.500  -0.7695   0.02966   0.02427  -0.1094  0.5680  0.0107  -6.9620   0.0000   0.0748
 -14.000  -0.7427   0.02761   0.02217  -0.1089  0.5651  0.0107  -6.6673   0.0000   0.0710
 -13.500  -0.7126   0.02593   0.02046  -0.1081  0.5647  0.0107  -6.3604   0.0000   0.0663
 -13.000  -0.6842   0.02417   0.01867  -0.1073  0.5641  0.0107  -6.0667   0.0000   0.0617
 -12.500  -0.6524   0.02269   0.01717  -0.1065  0.5634  0.0108  -5.7622   0.0000   0.0557
 -12.000  -0.6206   0.02114   0.01559  -0.1058  0.5624  0.0108  -5.4644   0.0000   0.0489
 -11.500  -0.5860   0.01978   0.01421  -0.1051  0.5612  0.0108  -5.1605   0.0000   0.0401
 -11.000  -0.5497   0.01843   0.01284  -0.1047  0.5598  0.0109  -4.8575   0.0000   0.0292
 -10.500  -0.5103   0.01714   0.01153  -0.1047  0.5581  0.0109  -4.5507   0.0000   0.0143
 -10.000  -0.4646   0.01595   0.01030  -0.1056  0.5560  0.0109  -4.2302   0.0000  -0.0087
  -9.500  -0.4109   0.01472   0.00904  -0.1082  0.5536  0.0110  -3.9007   0.0000  -0.0461
  -9.000  -0.3708   0.01351   0.00778  -0.1081  0.5511  0.0112  -3.6224   0.0000  -0.0750
  -8.500  -0.3355   0.01235   0.00658  -0.1069  0.5484  0.0114  -3.3634   0.0000  -0.1029
  -8.000  -0.3127   0.01133   0.00553  -0.1030  0.5459  0.0117  -3.1550   0.0000  -0.1132
  -7.500  -0.2879   0.01079   0.00498  -0.0978  0.5435  0.0122  -2.9533   0.0000  -0.1236
  -7.000  -0.2719   0.01042   0.00461  -0.0902  0.5425  0.0126  -2.7742   0.0000  -0.1150
  -6.500  -0.2364   0.01005   0.00425  -0.0864  0.5419  0.0132  -2.5516   0.0000  -0.1504
  -6.000  -0.1957   0.00972   0.00392  -0.0836  0.5407  0.0138  -2.3206   0.0000  -0.2150
  -5.500  -0.1545   0.00936   0.00359  -0.0807  0.5385  0.0167  -2.1036   0.0000  -0.3156
  -5.000  -0.1154   0.00893   0.00325  -0.0775  0.5368  0.0326  -1.8891   0.0000  -0.4730
  -4.500  -0.0766   0.00846   0.00290  -0.0742  0.5340  0.0615  -1.6783   0.0000  -0.7867
  -4.000  -0.0366   0.00804   0.00260  -0.0711  0.5300  0.0972  -1.4700   0.0000  -1.8147
  -3.500   0.0003   0.00753   0.00229  -0.0674  0.5260  0.1541  -1.2749   0.0000  219.0637
  -3.000   0.0335   0.00694   0.00199  -0.0630  0.5220  0.2379  -1.0939   0.0000   2.2190
  -2.500   0.0564   0.00607   0.00157  -0.0564  0.5209  0.3692  -0.9386   0.0000   1.2906
  -2.000   0.0897   0.00530   0.00130  -0.0519  0.5200  0.5087  -0.8714   0.0000   0.8461
  -1.500   0.1458   0.00525   0.00132  -0.0517  0.5178  0.5323  -0.9230   0.0000   0.6105
  -1.000   0.2027   0.00530   0.00133  -0.0517  0.5127  0.5392  -0.9755   0.0000   0.5054
  -0.500   0.2584   0.00535   0.00134  -0.0516  0.5041  0.5459  -1.0277   0.0000   0.4465
   0.000   0.3146   0.00539   0.00140  -0.0515  0.4992  0.5537  -1.0829   0.0000   0.4085
   0.500   0.3719   0.00545   0.00142  -0.0517  0.4918  0.5551  -1.1398   0.0000   0.3823
   1.000   0.4282   0.00556   0.00147  -0.0518  0.4792  0.5567  -1.2054   0.0000   0.3630
   1.500   0.4827   0.00577   0.00157  -0.0515  0.4557  0.5582  -1.2715   0.0000   0.3478
   2.000   0.5338   0.00612   0.00176  -0.0507  0.4220  0.5595  -1.3355   0.0000   0.3351
   2.500   0.5859   0.00645   0.00196  -0.0501  0.3945  0.5602  -1.4038   0.0000   0.3248
   3.000   0.6400   0.00675   0.00216  -0.0500  0.3737  0.5606  -1.4749   0.0000   0.3166
   3.500   0.6955   0.00703   0.00236  -0.0502  0.3560  0.5608  -1.5478   0.0000   0.3100
   4.000   0.7552   0.00730   0.00256  -0.0514  0.3402  0.5619  -1.6248   0.0000   0.3052
   4.500   0.8195   0.00760   0.00278  -0.0537  0.3246  0.5640  -1.7061   0.0000   0.3020
   5.000   0.8873   0.00786   0.00301  -0.0568  0.3140  0.5666  -1.7981   0.0000   0.2998
   5.500   0.9644   0.00816   0.00326  -0.0619  0.3014  0.5690  -1.9066   0.0000   0.2994
   6.000   1.0324   0.00853   0.00357  -0.0652  0.2857  0.5709  -2.0082   0.0000   0.2977
   6.500   1.0908   0.00884   0.00385  -0.0664  0.2766  0.5726  -2.1023   0.0000   0.2947
   7.000   1.1448   0.00917   0.00415  -0.0667  0.2668  0.5742  -2.1932   0.0000   0.2913
   7.500   1.1954   0.00956   0.00449  -0.0664  0.2567  0.5756  -2.2815   0.0000   0.2878
   8.000   1.2459   0.00991   0.00483  -0.0661  0.2478  0.5770  -2.3707   0.0000   0.2845
   8.500   1.2917   0.01037   0.00526  -0.0650  0.2384  0.5783  -2.4671   0.0000   0.2810
   9.000   1.3377   0.01080   0.00568  -0.0640  0.2302  0.5796  -2.5723   0.0000   0.2776
   9.500   1.3791   0.01138   0.00622  -0.0623  0.2211  0.5807  -2.6731   0.0000   0.2741
  10.000   1.4206   0.01194   0.00678  -0.0608  0.2134  0.5816  -2.7749   0.0000   0.2708
  10.500   1.4559   0.01274   0.00755  -0.0585  0.2053  0.5824  -2.8698   0.0000   0.2672
  11.000   1.4922   0.01353   0.00835  -0.0565  0.1981  0.5829  -2.9668   0.0000   0.2640
  11.500   1.5260   0.01452   0.00935  -0.0545  0.1924  0.5847  -3.0655   0.0000   0.2609
  12.000   1.5540   0.01590   0.01074  -0.0522  0.1843  0.5886  -3.1571   0.0000   0.2577
  12.500   1.5873   0.01721   0.01211  -0.0510  0.1805  0.5928  -3.2625   0.0000   0.2552
  13.000   1.6069   0.01963   0.01454  -0.0491  0.1721  0.5962  -3.3575   0.0000   0.2525
  13.500   1.6313   0.02185   0.01680  -0.0479  0.1663  0.5991  -3.4628   0.0000   0.2501
  14.000   1.6421   0.02504   0.02000  -0.0459  0.1567  0.6015  -3.5452   0.0000   0.2475
  14.500   1.6585   0.02802   0.02302  -0.0447  0.1522  0.6035  -3.6408   0.0000   0.2452
  15.000   1.6678   0.03160   0.02663  -0.0432  0.1469  0.6049  -3.7286   0.0000   0.2429
  15.500   1.6807   0.03492   0.03001  -0.0421  0.1423  0.6058  -3.8250   0.0000   0.2408
  16.000   1.6982   0.03795   0.03310  -0.0414  0.1389  0.6110  -3.9343   0.0000   0.2389
  16.500   1.7005   0.04226   0.03743  -0.0402  0.1311  0.6175  -4.0133   0.0000   0.2368
  17.000   1.7120   0.04595   0.04120  -0.0396  0.1272  0.6227  -4.1105   0.0000   0.2350
  17.500   1.7124   0.05061   0.04588  -0.0387  0.1198  0.6267  -4.1846   0.0000   0.2331
  21.000   1.7414   0.08378   0.07954  -0.0393  0.0866  0.7140  -4.7506   0.0000   0.2232
  21.500   1.7306   0.09061   0.08648  -0.0404  0.0815  0.7453  -4.8085   0.0000   0.2224
  22.000   1.7267   0.09696   0.09307  -0.0420  0.0781  0.8114  -4.9514   0.0000   0.2219
  22.500   1.6960   0.10304   0.09957  -0.0386  0.0747  0.9971  -5.0089   0.0000   0.2188
  23.000   1.7102   0.11216   0.10878  -0.0475  0.0700  1.0000  -5.2047   0.0000   0.2222
  23.500   1.6893   0.12059   0.11727  -0.0500  0.0656  1.0000  -5.2828   0.0000   0.2224
  24.000   1.6769   0.12807   0.12485  -0.0526  0.0630  1.0000  -5.3901   0.0000   0.2226
  24.500   1.6578   0.13646   0.13331  -0.0559  0.0598  1.0000  -5.4672   0.0000   0.2232
  25.000   1.6470   0.14379   0.14074  -0.0592  0.0576  1.0000  -5.5744   0.0000   0.2238
  25.500   1.6419   0.15033   0.14733  -0.0625  0.0549  1.0000  -5.7039   0.0000   0.2242
  26.000   1.6261   0.15849   0.15558  -0.0669  0.0518  1.0000  -5.7821   0.0000   0.2255
  26.500   1.6141   0.16611   0.16328  -0.0713  0.0495  1.0000  -5.8733   0.0000   0.2268
  27.000   1.5973   0.17447   0.17171  -0.0763  0.0464  1.0000  -5.9368   0.0000   0.2286
  27.500   1.5862   0.18205   0.17936  -0.0813  0.0436  1.0000  -6.0228   0.0000   0.2303
  28.000   1.5792   0.18898   0.18632  -0.0862  0.0399  1.0000  -6.1324   0.0000   0.2317
  28.500   1.5622   0.19758   0.19497  -0.0923  0.0361  1.0000  -6.1842   0.0000   0.2343
  29.000   1.5424   0.20675   0.20419  -0.0990  0.0312  1.0000  -6.2116   0.0000   0.2375
  29.500   1.5190   0.21666   0.21412  -0.1064  0.0258  1.0000  -6.2076   0.0000   0.2414
  30.000   1.4994   0.22587   0.22338  -0.1136  0.0217  1.0000  -6.2163   0.0000   0.2453
  30.500   1.4831   0.23466   0.23221  -0.1208  0.0181  1.0000  -6.2354   0.0000   0.2490
  31.000   1.4645   0.24403   0.24162  -0.1285  0.0140  1.0000  -6.2273   0.0000   0.2533
  31.500   1.4412   0.25450   0.25210  -0.1370  0.0092  1.0000  -6.1725   0.0000   0.2587
  32.500   1.4301   0.26839   0.26609  -0.1499  0.0068  1.0000  -6.2963   0.0000   0.2643
  33.000   1.4226   0.27575   0.27352  -0.1568  0.0062  1.0000  -6.3326   0.0000   0.2675
  33.500   1.4186   0.28232   0.28016  -0.1632  0.0058  1.0000  -6.3921   0.0000   0.2702
  34.000   1.4211   0.28733   0.28522  -0.1687  0.0056  1.0000  -6.5083   0.0000   0.2716
  34.500   1.4166   0.29389   0.29185  -0.1753  0.0053  1.0000  -6.5558   0.0000   0.2744
  35.000   1.4127   0.30025   0.29827  -0.1819  0.0050  1.0000  -6.6054   0.0000   0.2771
  35.500   1.4106   0.30609   0.30416  -0.1881  0.0046  1.0000  -6.6751   0.0000   0.2793
  36.000   1.4095   0.31159   0.30973  -0.1942  0.0045  1.0000  -6.7543   0.0000   0.2813
  36.500   1.4128   0.31587   0.31405  -0.1996  0.0043  1.0000  -6.8822   0.0000   0.2823
  37.000   1.4107   0.32139   0.31963  -0.2058  0.0042  1.0000  -6.9453   0.0000   0.2844
  37.500   1.4122   0.32589   0.32417  -0.2115  0.0040  0.9999  -7.0549   0.0000   0.2856
  38.000   1.4094   0.33143   0.32976  -0.2179  0.0038  0.9999  -7.1148   0.0000   0.2878
  38.500   1.4052   0.33728   0.33565  -0.2245  0.0034  0.9999  -7.1590   0.0000   0.2903
  39.000   1.4072   0.34129   0.33970  -0.2300  0.0033  0.9999  -7.2890   0.0000   0.2912
  39.500   1.4074   0.34562   0.34408  -0.2359  0.0032  0.9999  -7.3944   0.0000   0.2925
  40.000   1.4093   0.34933   0.34782  -0.2414  0.0031  0.9999  -7.5278   0.0000   0.2932
  40.500   1.4112   0.35296   0.35149  -0.2468  0.0030  0.9999  -7.6611   0.0000   0.2938
  41.000   1.4095   0.35740   0.35597  -0.2529  0.0028  0.9999  -7.7387   0.0000   0.2953
  41.500   1.4102   0.36105   0.35964  -0.2585  0.0027  0.9998  -7.8565   0.0000   0.2960
  42.000   1.4072   0.36534   0.36396  -0.2647  0.0024  0.9998  -7.9056   0.0000   0.2977
  42.500   1.4085   0.36789   0.36654  -0.2701  0.0023  0.9998  -8.0328   0.0000   0.2981
  43.000   1.4086   0.37040   0.36909  -0.2758  0.0022  0.9998  -8.1418   0.0000   0.2987
  43.500   1.4090   0.37256   0.37128  -0.2813  0.0022  0.9998  -8.2579   0.0000   0.2991
  44.000   1.4101   0.37431   0.37307  -0.2867  0.0021  0.9998  -8.3930   0.0000   0.2992
  44.500   1.4082   0.37670   0.37549  -0.2925  0.0020  0.9998  -8.4679   0.0000   0.3000
  45.000   1.4081   0.37849   0.37731  -0.2980  0.0018  0.9997  -8.5846   0.0000   0.3002
  45.500   1.4054   0.38087   0.37971  -0.3039  0.0017  0.9997  -8.6538   0.0000   0.3011


