xflr5 v6.33

 Calculated polar for: Bell A821201 v4

 1 1 Reynolds number fixed          Mach number fixed         

 xtrf =   1.000 (top)        1.000 (bottom)
 Mach =   0.000     Re =     4.600 e 6     Ncrit =   9.000

  alpha     CL        CD       CDp       Cm    Top Xtr Bot Xtr   Cpmin    Chinge    XCp    
 ------- -------- --------- --------- -------- ------- ------- -------- --------- ---------
 -27.500  -0.6981   0.21935   0.21807  -0.0148  0.9939  0.0087  -7.1700   0.0000   0.1538
 -27.000  -0.6363   0.22187   0.22067  -0.0186  0.9923  0.0087  -6.2781   0.0000   0.1446
 -26.500  -0.6214   0.22314   0.22200  -0.0148  0.9901  0.0086  -5.8481   0.0000   0.1516
 -26.000  -0.5935   0.22231   0.22119  -0.0164  0.9884  0.0086  -5.4430   0.0000   0.1482
 -25.500  -0.5649   0.22044   0.21934  -0.0193  0.9854  0.0085  -5.0824   0.0000   0.1415
 -25.000  -0.5262   0.21667   0.21490  -0.0260  0.8216  0.0086  -4.7124   0.0000   0.1250
 -24.500  -0.5009   0.21401   0.21205  -0.0293  0.7753  0.0086  -4.4173   0.0000   0.1159
 -24.000  -0.4776   0.21081   0.20877  -0.0326  0.7472  0.0087  -4.1616   0.0000   0.1058
 -23.500  -0.4533   0.20711   0.20470  -0.0366  0.6462  0.0088  -3.9274   0.0000   0.0926
 -23.000  -0.4308   0.20348   0.20099  -0.0401  0.6246  0.0089  -3.7056   0.0000   0.0797
 -22.500  -0.4083   0.19988   0.19734  -0.0434  0.6095  0.0090  -3.4828   0.0000   0.0655
 -22.000  -0.3862   0.19623   0.19366  -0.0467  0.6016  0.0092  -3.2689   0.0000   0.0499
 -21.500  -1.0080   0.07864   0.07492  -0.0994  0.7731  0.0097  -10.6153   0.0000   0.1044
 -21.000  -1.0135   0.07196   0.06808  -0.1022  0.7554  0.0098  -10.5132   0.0000   0.1038
 -20.500  -1.0151   0.06584   0.06159  -0.1049  0.6690  0.0098  -10.3782   0.0000   0.1028
 -19.500  -1.0044   0.05589   0.05131  -0.1081  0.6205  0.0099  -9.9926   0.0000   0.1012
 -19.000  -0.9942   0.05174   0.04706  -0.1090  0.6082  0.0099  -9.7629   0.0000   0.1004
 -18.500  -0.9793   0.04815   0.04337  -0.1096  0.5999  0.0100  -9.5039   0.0000   0.0992
 -18.000  -0.9640   0.04469   0.03981  -0.1100  0.5889  0.0100  -9.2426   0.0000   0.0981
 -17.500  -0.9481   0.04142   0.03647  -0.1101  0.5863  0.0100  -8.9777   0.0000   0.0971
 -17.000  -0.9257   0.03882   0.03381  -0.1100  0.5830  0.0101  -8.6781   0.0000   0.0953
 -16.500  -0.9056   0.03606   0.03097  -0.1098  0.5791  0.0101  -8.3937   0.0000   0.0938
 -16.000  -0.8796   0.03385   0.02869  -0.1095  0.5739  0.0102  -8.0808   0.0000   0.0913
 -15.500  -0.8559   0.03148   0.02625  -0.1092  0.5682  0.0102  -7.7836   0.0000   0.0891
 -15.000  -0.8275   0.02958   0.02431  -0.1086  0.5651  0.0103  -7.4656   0.0000   0.0859
 -14.500  -0.8014   0.02751   0.02220  -0.1080  0.5647  0.0103  -7.1635   0.0000   0.0832
 -14.000  -0.7712   0.02584   0.02051  -0.1073  0.5641  0.0103  -6.8455   0.0000   0.0794
 -13.500  -0.7431   0.02407   0.01870  -0.1065  0.5633  0.0104  -6.5425   0.0000   0.0758
 -13.000  -0.7114   0.02260   0.01721  -0.1056  0.5623  0.0104  -6.2279   0.0000   0.0712
 -12.500  -0.6803   0.02105   0.01563  -0.1048  0.5611  0.0105  -5.9216   0.0000   0.0661
 -12.000  -0.6460   0.01970   0.01425  -0.1040  0.5595  0.0105  -5.6077   0.0000   0.0593
 -11.500  -0.6106   0.01835   0.01287  -0.1035  0.5578  0.0106  -5.2962   0.0000   0.0512
 -11.000  -0.5727   0.01705   0.01155  -0.1032  0.5557  0.0106  -4.9822   0.0000   0.0405
 -10.500  -0.5304   0.01586   0.01033  -0.1035  0.5530  0.0106  -4.6600   0.0000   0.0254
 -10.000  -0.4791   0.01475   0.00919  -0.1054  0.5495  0.0107  -4.3163   0.0000  -0.0002
  -9.500  -0.4232   0.01372   0.00814  -0.1079  0.5465  0.0108  -3.9680   0.0000  -0.0368
  -9.000  -0.3803   0.01269   0.00709  -0.1079  0.5440  0.0108  -3.6690   0.0000  -0.0665
  -8.500  -0.3454   0.01163   0.00602  -0.1065  0.5426  0.0108  -3.4014   0.0000  -0.0916
  -8.000  -0.3196   0.01088   0.00526  -0.1023  0.5424  0.0109  -3.1659   0.0000  -0.1032
  -7.500  -0.2937   0.01038   0.00475  -0.0970  0.5420  0.0110  -2.9541   0.0000  -0.1138
  -7.000  -0.2757   0.00999   0.00435  -0.0898  0.5414  0.0115  -2.7828   0.0000  -0.1085
  -6.500  -0.2392   0.00962   0.00398  -0.0862  0.5402  0.0123  -2.5687   0.0000  -0.1446
  -6.000  -0.1981   0.00929   0.00367  -0.0833  0.5379  0.0133  -2.3374   0.0000  -0.2082
  -5.500  -0.1546   0.00900   0.00339  -0.0809  0.5353  0.0150  -2.1080   0.0000  -0.3167
  -5.000  -0.1126   0.00866   0.00310  -0.0782  0.5324  0.0238  -1.8855   0.0000  -0.4970
  -4.500  -0.0726   0.00827   0.00278  -0.0751  0.5274  0.0468  -1.6719   0.0000  -0.8562
  -4.000  -0.0319   0.00789   0.00252  -0.0721  0.5228  0.0777  -1.4622   0.0000  -2.1491
  -3.500   0.0078   0.00743   0.00225  -0.0689  0.5212  0.1245  -1.2613   0.0000   9.5111
  -3.000   0.0437   0.00684   0.00194  -0.0650  0.5206  0.2007  -1.0756   0.0000   1.8053
  -2.500   0.0727   0.00612   0.00159  -0.0596  0.5195  0.3083  -0.9095   0.0000   1.1012
  -2.000   0.0964   0.00524   0.00121  -0.0531  0.5177  0.4576  -0.8754   0.0000   0.8173
  -1.500   0.1498   0.00501   0.00116  -0.0525  0.5128  0.5193  -0.9256   0.0000   0.6062
  -1.000   0.2064   0.00505   0.00120  -0.0525  0.5040  0.5366  -0.9779   0.0000   0.5047
  -0.500   0.2638   0.00510   0.00122  -0.0527  0.4995  0.5393  -1.0311   0.0000   0.4468
   0.000   0.3213   0.00513   0.00126  -0.0529  0.4925  0.5487  -1.0873   0.0000   0.4097
   0.500   0.3787   0.00523   0.00130  -0.0532  0.4805  0.5517  -1.1443   0.0000   0.3839
   1.000   0.4352   0.00540   0.00138  -0.0534  0.4598  0.5536  -1.2104   0.0000   0.3648
   1.500   0.4890   0.00573   0.00155  -0.0531  0.4249  0.5553  -1.2758   0.0000   0.3497
   2.000   0.5433   0.00604   0.00173  -0.0529  0.3972  0.5571  -1.3422   0.0000   0.3376
   2.500   0.5981   0.00633   0.00192  -0.0529  0.3752  0.5587  -1.4132   0.0000   0.3278
   3.000   0.6553   0.00659   0.00210  -0.0534  0.3573  0.5594  -1.4870   0.0000   0.3202
   3.500   0.7143   0.00686   0.00229  -0.0544  0.3410  0.5598  -1.5629   0.0000   0.3141
   4.000   0.7747   0.00716   0.00251  -0.0558  0.3249  0.5602  -1.6406   0.0000   0.3092
   4.500   0.8380   0.00740   0.00270  -0.0577  0.3153  0.5605  -1.7216   0.0000   0.3055
   5.000   0.9025   0.00767   0.00292  -0.0600  0.3035  0.5608  -1.8121   0.0000   0.3024
   5.500   0.9810   0.00804   0.00321  -0.0655  0.2864  0.5617  -1.9220   0.0000   0.3021
   6.000   1.0456   0.00832   0.00345  -0.0680  0.2772  0.5638  -2.0211   0.0000   0.2996
   6.500   1.1036   0.00860   0.00370  -0.0691  0.2671  0.5660  -2.1150   0.0000   0.2964
   7.000   1.1573   0.00892   0.00399  -0.0693  0.2582  0.5684  -2.2059   0.0000   0.2930
   7.500   1.2085   0.00925   0.00430  -0.0690  0.2483  0.5707  -2.2951   0.0000   0.2894
   8.000   1.2570   0.00965   0.00466  -0.0683  0.2385  0.5729  -2.3823   0.0000   0.2859
   8.500   1.3060   0.01001   0.00501  -0.0678  0.2302  0.5748  -2.4838   0.0000   0.2826
   9.000   1.3487   0.01052   0.00549  -0.0662  0.2208  0.5765  -2.5854   0.0000   0.2789
   9.500   1.3939   0.01096   0.00592  -0.0651  0.2134  0.5782  -2.6912   0.0000   0.2757
  10.000   1.4321   0.01161   0.00653  -0.0629  0.2050  0.5795  -2.7893   0.0000   0.2720
  10.500   1.4724   0.01220   0.00713  -0.0612  0.1981  0.5807  -2.8907   0.0000   0.2687
  11.000   1.5078   0.01299   0.00791  -0.0590  0.1917  0.5817  -2.9875   0.0000   0.2653
  11.500   1.5406   0.01395   0.00886  -0.0567  0.1842  0.5824  -3.0852   0.0000   0.2620
  12.000   1.5752   0.01492   0.00986  -0.0549  0.1801  0.5829  -3.1875   0.0000   0.2590
  12.500   1.5980   0.01662   0.01155  -0.0522  0.1710  0.5844  -3.2789   0.0000   0.2558
  13.000   1.6264   0.01836   0.01333  -0.0508  0.1656  0.5887  -3.3895   0.0000   0.2533
  13.500   1.6422   0.02113   0.01610  -0.0489  0.1556  0.5932  -3.4807   0.0000   0.2506
  14.000   1.6622   0.02367   0.01869  -0.0475  0.1512  0.5969  -3.5795   0.0000   0.2482
  14.500   1.6763   0.02670   0.02175  -0.0459  0.1455  0.5999  -3.6726   0.0000   0.2458
  15.000   1.6948   0.02959   0.02470  -0.0450  0.1420  0.6024  -3.7788   0.0000   0.2437
  15.500   1.7093   0.03275   0.02792  -0.0439  0.1382  0.6043  -3.8812   0.0000   0.2416
  16.000   1.7124   0.03685   0.03203  -0.0423  0.1304  0.6054  -3.9630   0.0000   0.2393
  16.500   1.7238   0.04040   0.03563  -0.0414  0.1264  0.6079  -4.0610   0.0000   0.2373
  17.000   1.7246   0.04492   0.04017  -0.0403  0.1188  0.6150  -4.1370   0.0000   0.2353
  17.500   1.7377   0.04838   0.04368  -0.0397  0.1141  0.6211  -4.2384   0.0000   0.2335
  18.000   1.7392   0.05302   0.04835  -0.0390  0.1077  0.6257  -4.3149   0.0000   0.2316
  18.500   1.7463   0.05723   0.05262  -0.0386  0.1042  0.6291  -4.4031   0.0000   0.2300
  19.000   1.7523   0.06157   0.05699  -0.0383  0.0986  0.6395  -4.4881   0.0000   0.2284
  19.500   1.7578   0.06614   0.06166  -0.0384  0.0954  0.6487  -4.5719   0.0000   0.2269
  20.000   1.7575   0.07132   0.06686  -0.0384  0.0889  0.6588  -4.6445   0.0000   0.2255
  20.500   1.7615   0.07618   0.07181  -0.0388  0.0856  0.6735  -4.7281   0.0000   0.2242
  21.000   1.7524   0.08257   0.07829  -0.0394  0.0801  0.6888  -4.7789   0.0000   0.2232
  21.500   1.7486   0.08856   0.08438  -0.0403  0.0768  0.7097  -4.8708   0.0000   0.2222
  22.000   1.7371   0.09552   0.09147  -0.0416  0.0721  0.7401  -4.9909   0.0000   0.2216
  22.500   1.7297   0.10229   0.09843  -0.0434  0.0689  0.7941  -5.1242   0.0000   0.2212
  23.000   1.6848   0.10781   0.10442  -0.0371  0.0657  0.9955  -5.1344   0.0000   0.2166
  23.500   1.7103   0.11789   0.11458  -0.0495  0.0616  1.0000  -5.3661   0.0000   0.2218
  24.000   1.6920   0.12609   0.12286  -0.0522  0.0582  1.0000  -5.4521   0.0000   0.2221
  24.500   1.6885   0.13231   0.12915  -0.0548  0.0563  1.0000  -5.5958   0.0000   0.2220
  25.000   1.6691   0.14071   0.13763  -0.0583  0.0533  1.0000  -5.6705   0.0000   0.2228
  25.500   1.6568   0.14827   0.14528  -0.0619  0.0509  1.0000  -5.7707   0.0000   0.2235
  26.000   1.6386   0.15674   0.15383  -0.0662  0.0479  1.0000  -5.8403   0.0000   0.2249
  26.500   1.6253   0.16453   0.16170  -0.0706  0.0455  1.0000  -5.9275   0.0000   0.2261
  27.000   1.6072   0.17303   0.17026  -0.0757  0.0423  1.0000  -5.9865   0.0000   0.2280
  27.500   1.6007   0.17979   0.17706  -0.0802  0.0385  1.0000  -6.0990   0.0000   0.2292
  28.000   1.5819   0.18861   0.18593  -0.0861  0.0342  1.0000  -6.1486   0.0000   0.2316
  28.500   1.5558   0.19872   0.19607  -0.0930  0.0287  1.0000  -6.1499   0.0000   0.2351
  29.000   1.5339   0.20829   0.20568  -0.1000  0.0242  1.0000  -6.1638   0.0000   0.2385
  29.500   1.5156   0.21734   0.21478  -0.1069  0.0205  1.0000  -6.1886   0.0000   0.2419
  30.000   1.4975   0.22632   0.22382  -0.1140  0.0170  1.0000  -6.2059   0.0000   0.2456
  31.000   1.4545   0.24611   0.24367  -0.1298  0.0086  1.0000  -6.1587   0.0000   0.2549
  31.500   1.4429   0.25426   0.25188  -0.1369  0.0072  1.0000  -6.1866   0.0000   0.2585
  32.000   1.4424   0.26010   0.25776  -0.1425  0.0065  1.0000  -6.2926   0.0000   0.2603
  32.500   1.4365   0.26705   0.26478  -0.1490  0.0059  1.0000  -6.3513   0.0000   0.2631
  33.000   1.4326   0.27352   0.27132  -0.1552  0.0057  1.0000  -6.4223   0.0000   0.2656
  33.500   1.4342   0.27875   0.27660  -0.1608  0.0054  1.0000  -6.5371   0.0000   0.2671
  34.000   1.4285   0.28554   0.28346  -0.1674  0.0051  1.0000  -6.5837   0.0000   0.2700
  34.500   1.4221   0.29245   0.29044  -0.1742  0.0047  0.9999  -6.6168   0.0000   0.2731
  35.000   1.4251   0.29712   0.29515  -0.1796  0.0045  0.9999  -6.7380   0.0000   0.2742
  35.500   1.4226   0.30298   0.30109  -0.1859  0.0044  0.9999  -6.8121   0.0000   0.2765
  36.000   1.4258   0.30739   0.30553  -0.1913  0.0042  0.9999  -6.9438   0.0000   0.2775
  36.500   1.4223   0.31329   0.31149  -0.1977  0.0041  0.9999  -7.0015   0.0000   0.2799
  37.000   1.4228   0.31812   0.31636  -0.2036  0.0039  0.9999  -7.1011   0.0000   0.2814
  37.500   1.4188   0.32403   0.32232  -0.2101  0.0036  0.9999  -7.1456   0.0000   0.2838
  38.000   1.4141   0.33004   0.32839  -0.2168  0.0033  0.9999  -7.1852   0.0000   0.2864
  38.500   1.4178   0.33368   0.33207  -0.2221  0.0033  0.9999  -7.3438   0.0000   0.2870
  39.000   1.4161   0.33862   0.33706  -0.2282  0.0031  0.9998  -7.4295   0.0000   0.2887
  39.500   1.4187   0.34230   0.34077  -0.2336  0.0030  0.9998  -7.5753   0.0000   0.2893
  40.000   1.4161   0.34729   0.34581  -0.2399  0.0029  0.9998  -7.6444   0.0000   0.2912
  40.500   1.4172   0.35108   0.34963  -0.2455  0.0027  0.9998  -7.7709   0.0000   0.2920
  41.000   1.4132   0.35624   0.35483  -0.2519  0.0025  0.9998  -7.8130   0.0000   0.2941
  41.500   1.4127   0.36024   0.35886  -0.2577  0.0023  0.9998  -7.9104   0.0000   0.2951
  42.000   1.4114   0.36409   0.36275  -0.2636  0.0022  0.9998  -7.9964   0.0000   0.2963
  42.500   1.4134   0.36652   0.36521  -0.2689  0.0022  0.9997  -8.1413   0.0000   0.2964
  43.000   1.4148   0.36873   0.36745  -0.2743  0.0021  0.9997  -8.2786   0.0000   0.2967
  43.500   1.4130   0.37146   0.37023  -0.2802  0.0020  0.9997  -8.3555   0.0000   0.2977
  44.000   1.4138   0.37327   0.37206  -0.2857  0.0019  0.9997  -8.4880   0.0000   0.2979
  44.500   1.4108   0.37587   0.37469  -0.2917  0.0018  0.9997  -8.5432   0.0000   0.2990
  45.000   1.4096   0.37796   0.37680  -0.2974  0.0016  0.9997  -8.6358   0.0000   0.2995
  45.500   1.4071   0.38028   0.37914  -0.3032  0.0014  0.9996  -8.7088   0.0000   0.3003


