xflr5 v6.33

 Calculated polar for: Bell A821201 v4

 1 1 Reynolds number fixed          Mach number fixed         

 xtrf =   1.000 (top)        1.000 (bottom)
 Mach =   0.000     Re =     3.000 e 6     Ncrit =   9.000

  alpha     CL        CD       CDp       Cm    Top Xtr Bot Xtr   Cpmin    Chinge    XCp    
 ------- -------- --------- --------- -------- ------- ------- -------- --------- ---------
 -25.000  -0.7185   0.18146   0.17974  -0.0357  0.9943  0.0102  -7.7460   0.0000   0.1341
 -24.500  -0.7528   0.16553   0.16362  -0.0465  0.9937  0.0103  -8.3135   0.0000   0.1247
 -24.000  -0.7738   0.15250   0.15043  -0.0557  0.9925  0.0104  -8.6278   0.0000   0.1166
 -23.500  -0.8029   0.14138   0.13918  -0.0608  0.9905  0.0104  -8.8906   0.0000   0.1155
 -23.000  -0.8249   0.13095   0.12861  -0.0661  0.9894  0.0105  -9.0612   0.0000   0.1133
 -22.500  -0.8475   0.11999   0.11750  -0.0723  0.9878  0.0105  -9.2213   0.0000   0.1103
 -22.000  -0.8648   0.10977   0.10713  -0.0782  0.9850  0.0106  -9.3119   0.0000   0.1072
 -21.500  -0.8806   0.10014   0.09736  -0.0835  0.9789  0.0106  -9.3642   0.0000   0.1046
 -21.000  -0.8667   0.08978   0.08616  -0.0950  0.7973  0.0106  -9.2613   0.0000   0.0907
 -20.500  -0.8742   0.08229   0.07847  -0.0986  0.7746  0.0107  -9.2092   0.0000   0.0893
 -20.000  -0.8793   0.07532   0.07132  -0.1017  0.7530  0.0107  -9.1277   0.0000   0.0880
 -19.500  -0.8776   0.06918   0.06477  -0.1048  0.6619  0.0107  -8.9958   0.0000   0.0858
 -19.000  -0.8729   0.06378   0.05918  -0.1070  0.6345  0.0107  -8.8331   0.0000   0.0840
 -18.500  -0.8656   0.05886   0.05412  -0.1086  0.6221  0.0108  -8.6481   0.0000   0.0824
 -18.000  -0.8555   0.05443   0.04957  -0.1098  0.6099  0.0108  -8.4425   0.0000   0.0806
 -17.500  -0.8432   0.05041   0.04544  -0.1107  0.6037  0.0108  -8.2210   0.0000   0.0789
 -17.000  -0.8275   0.04680   0.04172  -0.1113  0.5961  0.0108  -7.9802   0.0000   0.0766
 -16.500  -0.8080   0.04372   0.03855  -0.1116  0.5882  0.0109  -7.7186   0.0000   0.0738
 -16.000  -0.7893   0.04064   0.03541  -0.1117  0.5867  0.0109  -7.4621   0.0000   0.0713
 -15.500  -0.7665   0.03803   0.03274  -0.1117  0.5843  0.0109  -7.1857   0.0000   0.0680
 -15.000  -0.7444   0.03542   0.03007  -0.1115  0.5814  0.0109  -6.9181   0.0000   0.0647
 -14.500  -0.7281   0.03251   0.02705  -0.1109  0.5784  0.0110  -6.6945   0.0000   0.0631
 -14.000  -0.7071   0.03005   0.02451  -0.1102  0.5751  0.0110  -6.4471   0.0000   0.0603
 -13.500  -0.6847   0.02770   0.02208  -0.1096  0.5713  0.0111  -6.1935   0.0000   0.0569
 -13.000  -0.6576   0.02580   0.02011  -0.1089  0.5677  0.0112  -5.9202   0.0000   0.0519
 -12.500  -0.6306   0.02393   0.01819  -0.1081  0.5651  0.0113  -5.6497   0.0000   0.0466
 -12.000  -0.6004   0.02232   0.01654  -0.1072  0.5646  0.0114  -5.3683   0.0000   0.0398
 -11.500  -0.5685   0.02074   0.01493  -0.1066  0.5640  0.0115  -5.0848   0.0000   0.0312
 -11.000  -0.5336   0.01928   0.01344  -0.1062  0.5632  0.0116  -4.7948   0.0000   0.0198
 -10.500  -0.4939   0.01795   0.01209  -0.1063  0.5621  0.0117  -4.4936   0.0000   0.0032
 -10.000  -0.4468   0.01667   0.01079  -0.1077  0.5608  0.0119  -4.1754   0.0000  -0.0236
  -9.500  -0.4008   0.01547   0.00957  -0.1088  0.5592  0.0121  -3.8672   0.0000  -0.0550
  -9.000  -0.3616   0.01433   0.00842  -0.1083  0.5577  0.0123  -3.5865   0.0000  -0.0840
  -8.500  -0.3254   0.01322   0.00729  -0.1071  0.5562  0.0126  -3.3205   0.0000  -0.1146
  -8.000  -0.2970   0.01209   0.00613  -0.1047  0.5544  0.0129  -3.0923   0.0000  -0.1382
  -7.500  -0.2739   0.01138   0.00539  -0.0997  0.5525  0.0132  -2.8959   0.0000  -0.1497
  -7.000  -0.2544   0.01093   0.00492  -0.0932  0.5499  0.0135  -2.7111   0.0000  -0.1515
  -6.500  -0.2287   0.01063   0.00460  -0.0875  0.5463  0.0139  -2.5156   0.0000  -0.1687
  -6.000  -0.1942   0.01028   0.00426  -0.0836  0.5426  0.0160  -2.3163   0.0000  -0.2187
  -5.500  -0.1556   0.00985   0.00387  -0.0803  0.5416  0.0219  -2.1018   0.0000  -0.3091
  -5.000  -0.1196   0.00931   0.00345  -0.0766  0.5402  0.0457  -1.8952   0.0000  -0.4397
  -4.500  -0.0816   0.00881   0.00310  -0.0732  0.5387  0.0786  -1.6860   0.0000  -0.7100
  -4.000  -0.0450   0.00824   0.00274  -0.0695  0.5363  0.1290  -1.4851   0.0000  -1.3936
  -3.000   0.0175   0.00681   0.00195  -0.0599  0.5305  0.3136  -1.1234   0.0000   3.8545
  -2.500   0.0358   0.00576   0.00149  -0.0525  0.5270  0.4825  -0.9754   0.0000   1.7814
  -2.000   0.0868   0.00569   0.00151  -0.0513  0.5223  0.5236  -0.8693   0.0000   0.8603
  -1.500   0.1419   0.00572   0.00156  -0.0509  0.5207  0.5389  -0.9203   0.0000   0.6149
  -1.000   0.1976   0.00569   0.00155  -0.0507  0.5186  0.5467  -0.9721   0.0000   0.5068
  -0.500   0.2524   0.00573   0.00160  -0.0502  0.5139  0.5549  -1.0238   0.0000   0.4461
   0.000   0.3069   0.00580   0.00161  -0.0498  0.5063  0.5576  -1.0778   0.0000   0.4071
   0.500   0.3626   0.00586   0.00164  -0.0497  0.4999  0.5588  -1.1336   0.0000   0.3802
   1.000   0.4188   0.00591   0.00167  -0.0497  0.4930  0.5598  -1.1987   0.0000   0.3606
   1.500   0.4724   0.00605   0.00174  -0.0492  0.4796  0.5607  -1.2641   0.0000   0.3450
   2.000   0.5263   0.00624   0.00182  -0.0488  0.4567  0.5623  -1.3302   0.0000   0.3328
   2.500   0.5789   0.00656   0.00198  -0.0485  0.4229  0.5650  -1.3980   0.0000   0.3229
   3.000   0.6327   0.00687   0.00218  -0.0483  0.3963  0.5671  -1.4688   0.0000   0.3148
   3.500   0.6878   0.00718   0.00240  -0.0485  0.3753  0.5691  -1.5413   0.0000   0.3083
   4.000   0.7446   0.00749   0.00263  -0.0491  0.3570  0.5708  -1.6157   0.0000   0.3030
   4.500   0.8032   0.00780   0.00288  -0.0502  0.3411  0.5723  -1.6923   0.0000   0.2988
   5.000   0.8630   0.00815   0.00316  -0.0516  0.3254  0.5739  -1.7758   0.0000   0.2954
   5.500   0.9263   0.00843   0.00341  -0.0537  0.3157  0.5752  -1.8714   0.0000   0.2930
   6.000   0.9943   0.00878   0.00371  -0.0570  0.3026  0.5764  -1.9724   0.0000   0.2917
   6.500   1.0631   0.00922   0.00408  -0.0606  0.2866  0.5776  -2.0754   0.0000   0.2907
   7.000   1.1221   0.00953   0.00437  -0.0620  0.2788  0.5787  -2.1706   0.0000   0.2882
   7.500   1.1749   0.00994   0.00474  -0.0622  0.2675  0.5797  -2.2606   0.0000   0.2851
   8.000   1.2252   0.01035   0.00512  -0.0620  0.2585  0.5807  -2.3492   0.0000   0.2820
   8.500   1.2722   0.01082   0.00556  -0.0612  0.2487  0.5815  -2.4443   0.0000   0.2787
   9.000   1.3185   0.01129   0.00602  -0.0603  0.2409  0.5822  -2.5495   0.0000   0.2755
   9.500   1.3599   0.01189   0.00660  -0.0588  0.2314  0.5827  -2.6498   0.0000   0.2721
  10.000   1.4005   0.01253   0.00724  -0.0572  0.2239  0.5838  -2.7500   0.0000   0.2688
  10.500   1.4382   0.01334   0.00803  -0.0555  0.2147  0.5878  -2.8472   0.0000   0.2656
  11.000   1.4733   0.01427   0.00899  -0.0537  0.2078  0.5917  -2.9416   0.0000   0.2625
  11.500   1.5035   0.01552   0.01024  -0.0515  0.1991  0.5948  -3.0345   0.0000   0.2593
  12.000   1.5355   0.01683   0.01161  -0.0499  0.1945  0.5974  -3.1304   0.0000   0.2565
  12.500   1.5573   0.01902   0.01381  -0.0481  0.1863  0.5998  -3.2158   0.0000   0.2537
  13.000   1.5859   0.02097   0.01582  -0.0471  0.1822  0.6019  -3.3231   0.0000   0.2515
  13.500   1.6050   0.02358   0.01846  -0.0456  0.1757  0.6037  -3.4189   0.0000   0.2490
  14.000   1.6205   0.02653   0.02143  -0.0441  0.1684  0.6050  -3.5085   0.0000   0.2466
  14.500   1.6322   0.02994   0.02487  -0.0428  0.1616  0.6059  -3.5941   0.0000   0.2443
  15.000   1.6424   0.03348   0.02845  -0.0415  0.1544  0.6107  -3.6813   0.0000   0.2421
  15.500   1.6532   0.03706   0.03209  -0.0405  0.1498  0.6166  -3.7712   0.0000   0.2401
  16.000   1.6589   0.04112   0.03618  -0.0394  0.1432  0.6212  -3.8552   0.0000   0.2380
  16.500   1.6745   0.04444   0.03959  -0.0389  0.1407  0.6254  -3.9598   0.0000   0.2362
  17.000   1.6848   0.04815   0.04333  -0.0381  0.1346  0.6286  -4.0538   0.0000   0.2343
  17.500   1.6922   0.05228   0.04752  -0.0376  0.1290  0.6357  -4.1414   0.0000   0.2326
  18.000   1.6998   0.05649   0.05179  -0.0373  0.1232  0.6449  -4.2293   0.0000   0.2310
  18.500   1.7078   0.06067   0.05601  -0.0371  0.1171  0.6521  -4.3176   0.0000   0.2294
  19.000   1.7075   0.06585   0.06125  -0.0370  0.1112  0.6655  -4.3869   0.0000   0.2279
  20.000   1.7174   0.07538   0.07096  -0.0376  0.1026  0.6962  -4.5471   0.0000   0.2253
  20.500   1.7142   0.08123   0.07692  -0.0382  0.0976  0.7203  -4.6110   0.0000   0.2243
  21.000   1.7126   0.08711   0.08297  -0.0393  0.0931  0.7614  -4.6772   0.0000   0.2235
  22.000   1.7151   0.10005   0.09650  -0.0441  0.0841  1.0000  -4.9030   0.0000   0.2232
  22.500   1.7013   0.10748   0.10401  -0.0458  0.0797  1.0000  -5.0110   0.0000   0.2228
  23.000   1.6891   0.11475   0.11136  -0.0477  0.0763  1.0000  -5.1232   0.0000   0.2226
  23.500   1.6710   0.12292   0.11960  -0.0503  0.0720  1.0000  -5.2095   0.0000   0.2228
  24.000   1.6577   0.13057   0.12734  -0.0531  0.0688  1.0000  -5.3111   0.0000   0.2231
  24.500   1.6382   0.13906   0.13590  -0.0565  0.0648  1.0000  -5.3838   0.0000   0.2239
  25.000   1.6263   0.14664   0.14357  -0.0601  0.0623  1.0000  -5.4834   0.0000   0.2247
  25.500   1.6088   0.15508   0.15209  -0.0643  0.0591  1.0000  -5.5546   0.0000   0.2260
  26.000   1.6005   0.16223   0.15934  -0.0683  0.0571  1.0000  -5.6624   0.0000   0.2270
  26.500   1.5937   0.16907   0.16623  -0.0725  0.0540  1.0000  -5.7747   0.0000   0.2280
  27.000   1.5832   0.17657   0.17380  -0.0772  0.0514  1.0000  -5.8652   0.0000   0.2295
  27.500   1.5714   0.18429   0.18160  -0.0823  0.0486  1.0000  -5.9455   0.0000   0.2314
  28.000   1.5596   0.19206   0.18944  -0.0877  0.0454  1.0000  -6.0239   0.0000   0.2334
  28.500   1.5521   0.19915   0.19655  -0.0930  0.0417  1.0000  -6.1248   0.0000   0.2352
  29.000   1.5419   0.20672   0.20419  -0.0988  0.0386  1.0000  -6.2059   0.0000   0.2374
  29.500   1.5265   0.21520   0.21272  -0.1053  0.0346  1.0000  -6.2507   0.0000   0.2404
  30.000   1.5060   0.22457   0.22211  -0.1127  0.0290  1.0000  -6.2555   0.0000   0.2443
  30.500   1.4872   0.23377   0.23133  -0.1201  0.0242  1.0000  -6.2598   0.0000   0.2483
  31.000   1.4704   0.24273   0.24034  -0.1276  0.0203  1.0000  -6.2664   0.0000   0.2523
  31.500   1.4533   0.25188   0.24952  -0.1353  0.0161  1.0000  -6.2590   0.0000   0.2566
  32.000   1.4332   0.26182   0.25947  -0.1436  0.0110  1.0000  -6.2150   0.0000   0.2617
  32.500   1.4213   0.27016   0.26783  -0.1510  0.0084  1.0000  -6.2208   0.0000   0.2658
  33.000   1.4152   0.27725   0.27497  -0.1577  0.0073  1.0000  -6.2659   0.0000   0.2688
  33.500   1.4094   0.28427   0.28207  -0.1645  0.0067  1.0000  -6.3057   0.0000   0.2719
  34.000   1.4027   0.29149   0.28935  -0.1714  0.0061  1.0000  -6.3298   0.0000   0.2753
  34.500   1.4046   0.29663   0.29455  -0.1771  0.0058  1.0000  -6.4306   0.0000   0.2768
  35.000   1.4023   0.30266   0.30064  -0.1834  0.0056  1.0000  -6.4928   0.0000   0.2792
  35.500   1.4009   0.30843   0.30648  -0.1896  0.0053  1.0000  -6.5651   0.0000   0.2815
  36.000   1.4001   0.31395   0.31205  -0.1958  0.0050  1.0000  -6.6414   0.0000   0.2835
  36.500   1.3949   0.32057   0.31872  -0.2026  0.0046  1.0000  -6.6589   0.0000   0.2865
  37.000   1.3978   0.32493   0.32313  -0.2082  0.0045  1.0000  -6.7735   0.0000   0.2876
  37.500   1.3979   0.32989   0.32814  -0.2142  0.0044  1.0000  -6.8583   0.0000   0.2893
  38.000   1.4008   0.33393   0.33223  -0.2197  0.0042  1.0000  -6.9858   0.0000   0.2902
  39.500   1.3993   0.34822   0.34663  -0.2377  0.0035  1.0000  -7.2549   0.0000   0.2949
  40.000   1.4016   0.35185   0.35028  -0.2431  0.0033  1.0000  -7.3868   0.0000   0.2955
  40.500   1.4019   0.35588   0.35437  -0.2489  0.0032  1.0000  -7.4903   0.0000   0.2966
  41.000   1.4040   0.35924   0.35776  -0.2542  0.0031  0.9999  -7.6262   0.0000   0.2971
  41.500   1.4059   0.36247   0.36102  -0.2597  0.0030  0.9999  -7.7595   0.0000   0.2975
  42.000   1.4051   0.36598   0.36457  -0.2655  0.0028  0.9999  -7.8461   0.0000   0.2986
  42.500   1.4063   0.36853   0.36714  -0.2710  0.0027  0.9999  -7.9721   0.0000   0.2990
  43.000   1.4053   0.37137   0.37000  -0.2768  0.0025  0.9999  -8.0547   0.0000   0.3000
  43.500   1.4064   0.37337   0.37202  -0.2823  0.0023  0.9999  -8.1803   0.0000   0.3002
  44.000   1.4075   0.37517   0.37385  -0.2876  0.0022  0.9999  -8.3130   0.0000   0.3003
  44.500   1.4069   0.37727   0.37599  -0.2932  0.0022  0.9999  -8.4127   0.0000   0.3007
  45.000   1.4060   0.37932   0.37808  -0.2989  0.0020  0.9998  -8.5083   0.0000   0.3012
  45.500   1.4056   0.38109   0.37989  -0.3043  0.0019  0.9998  -8.6326   0.0000   0.3013


