xflr5 v6.33

 Calculated polar for: Bell A821201 v4

 1 1 Reynolds number fixed          Mach number fixed         

 xtrf =   1.000 (top)        1.000 (bottom)
 Mach =   0.000     Re =     2.300 e 6     Ncrit =   9.000

  alpha     CL        CD       CDp       Cm    Top Xtr Bot Xtr   Cpmin    Chinge    XCp    
 ------- -------- --------- --------- -------- ------- ------- -------- --------- ---------
 -23.500  -0.7076   0.16176   0.15974  -0.0467  0.9941  0.0108  -7.5742   0.0000   0.1219
 -23.000  -0.7353   0.14700   0.14478  -0.0568  0.9930  0.0109  -7.9676   0.0000   0.1130
 -22.500  -0.7616   0.13503   0.13266  -0.0631  0.9906  0.0109  -8.2191   0.0000   0.1099
 -22.000  -0.7846   0.12394   0.12141  -0.0689  0.9893  0.0109  -8.3957   0.0000   0.1072
 -21.500  -0.8094   0.11240   0.10968  -0.0754  0.9873  0.0109  -8.5821   0.0000   0.1041
 -21.000  -0.8417   0.10027   0.09731  -0.0819  0.9838  0.0111  -8.8218   0.0000   0.1024
 -20.500  -0.8648   0.09083   0.08771  -0.0857  0.9738  0.0111  -8.9148   0.0000   0.1028
 -20.000  -0.8428   0.07962   0.07559  -0.1002  0.7915  0.0113  -8.8075   0.0000   0.0836
 -19.500  -0.8486   0.07269   0.06845  -0.1031  0.7666  0.0113  -8.7419   0.0000   0.0826
 -19.000  -0.8503   0.06650   0.06197  -0.1056  0.7148  0.0114  -8.6373   0.0000   0.0815
 -18.500  -0.8472   0.06091   0.05604  -0.1080  0.6495  0.0115  -8.4961   0.0000   0.0797
 -18.000  -0.8414   0.05593   0.05089  -0.1095  0.6307  0.0115  -8.3286   0.0000   0.0783
 -17.500  -0.8319   0.05159   0.04640  -0.1106  0.6186  0.0116  -8.1333   0.0000   0.0768
 -17.000  -0.8188   0.04775   0.04245  -0.1112  0.6093  0.0117  -7.9144   0.0000   0.0750
 -16.500  -0.8039   0.04424   0.03886  -0.1115  0.6040  0.0118  -7.6836   0.0000   0.0731
 -16.000  -0.7869   0.04099   0.03549  -0.1118  0.5981  0.0118  -7.4422   0.0000   0.0708
 -15.500  -0.7649   0.03827   0.03268  -0.1118  0.5909  0.0119  -7.1758   0.0000   0.0674
 -15.000  -0.7438   0.03558   0.02993  -0.1116  0.5876  0.0120  -6.9151   0.0000   0.0643
 -14.500  -0.7193   0.03326   0.02755  -0.1112  0.5860  0.0121  -6.6399   0.0000   0.0604
 -14.000  -0.6946   0.03099   0.02524  -0.1108  0.5840  0.0121  -6.3673   0.0000   0.0562
 -13.500  -0.6665   0.02902   0.02321  -0.1103  0.5818  0.0122  -6.0833   0.0000   0.0507
 -13.000  -0.6387   0.02707   0.02121  -0.1098  0.5793  0.0123  -5.8044   0.0000   0.0447
 -12.500  -0.6081   0.02539   0.01948  -0.1092  0.5767  0.0124  -5.5185   0.0000   0.0373
 -12.000  -0.5769   0.02373   0.01776  -0.1088  0.5736  0.0125  -5.2356   0.0000   0.0287
 -11.500  -0.5419   0.02224   0.01622  -0.1086  0.5701  0.0126  -4.9437   0.0000   0.0168
 -11.000  -0.5032   0.02080   0.01473  -0.1090  0.5667  0.0127  -4.6453   0.0000   0.0003
 -10.500  -0.4587   0.01943   0.01334  -0.1103  0.5649  0.0129  -4.3349   0.0000  -0.0243
 -10.000  -0.4141   0.01814   0.01203  -0.1113  0.5644  0.0130  -4.0309   0.0000  -0.0537
  -9.500  -0.3765   0.01689   0.01076  -0.1108  0.5635  0.0132  -3.7551   0.0000  -0.0801
  -9.000  -0.3402   0.01571   0.00956  -0.1099  0.5625  0.0134  -3.4890   0.0000  -0.1098
  -8.500  -0.3050   0.01460   0.00844  -0.1085  0.5615  0.0136  -3.2300   0.0000  -0.1437
  -8.000  -0.2727   0.01351   0.00734  -0.1066  0.5602  0.0138  -2.9889   0.0000  -0.1798
  -7.500  -0.2565   0.01224   0.00602  -0.1020  0.5589  0.0144  -2.8361   0.0000  -0.1857
  -7.000  -0.2371   0.01158   0.00535  -0.0959  0.5574  0.0154  -2.6648   0.0000  -0.1924
  -6.500  -0.2210   0.01119   0.00495  -0.0885  0.5557  0.0164  -2.4959   0.0000  -0.1877
  -6.000  -0.1885   0.01078   0.00455  -0.0843  0.5534  0.0192  -2.2968   0.0000  -0.2365
  -5.500  -0.1569   0.01029   0.00412  -0.0798  0.5495  0.0349  -2.1008   0.0000  -0.3017
  -5.000  -0.1238   0.00981   0.00376  -0.0757  0.5427  0.0664  -1.9006   0.0000  -0.4093
  -4.500  -0.0881   0.00922   0.00335  -0.0719  0.5419  0.1068  -1.6964   0.0000  -0.6258
  -4.000  -0.0558   0.00850   0.00292  -0.0675  0.5409  0.1764  -1.5048   0.0000  -1.0414
  -3.500  -0.0271   0.00765   0.00245  -0.0623  0.5390  0.2778  -1.3259   0.0000  -2.1932
  -3.000  -0.0043   0.00658   0.00191  -0.0559  0.5366  0.4253  -1.1640   0.0000  -13.3544
  -2.500   0.0369   0.00614   0.00178  -0.0529  0.5342  0.5206  -0.9706   0.0000   1.7468
  -2.000   0.0892   0.00615   0.00180  -0.0518  0.5314  0.5374  -0.8705   0.0000   0.8496
  -1.500   0.1409   0.00619   0.00183  -0.0507  0.5277  0.5485  -0.9194   0.0000   0.6163
  -1.000   0.1936   0.00633   0.00194  -0.0498  0.5222  0.5559  -0.9692   0.0000   0.5079
  -0.500   0.2461   0.00641   0.00202  -0.0489  0.5199  0.5601  -1.0194   0.0000   0.4456
   0.000   0.3008   0.00640   0.00200  -0.0484  0.5158  0.5607  -1.0736   0.0000   0.4059
   0.500   0.3559   0.00637   0.00192  -0.0482  0.5090  0.5631  -1.1290   0.0000   0.3787
   1.000   0.4099   0.00640   0.00191  -0.0478  0.5009  0.5677  -1.1920   0.0000   0.3586
   1.500   0.4663   0.00642   0.00194  -0.0479  0.4949  0.5702  -1.2594   0.0000   0.3436
   2.000   0.5196   0.00654   0.00199  -0.0474  0.4809  0.5718  -1.3251   0.0000   0.3312
   2.500   0.5723   0.00672   0.00208  -0.0469  0.4594  0.5731  -1.3924   0.0000   0.3210
   3.000   0.6216   0.00706   0.00228  -0.0458  0.4277  0.5744  -1.4597   0.0000   0.3119
   3.500   0.6717   0.00742   0.00251  -0.0449  0.4006  0.5756  -1.5281   0.0000   0.3044
   4.000   0.7230   0.00777   0.00276  -0.0443  0.3795  0.5768  -1.5980   0.0000   0.2982
   4.500   0.7754   0.00812   0.00304  -0.0441  0.3608  0.5780  -1.6692   0.0000   0.2930
   5.000   0.8292   0.00850   0.00334  -0.0442  0.3438  0.5793  -1.7451   0.0000   0.2888
   5.500   0.8865   0.00884   0.00363  -0.0451  0.3312  0.5802  -1.8347   0.0000   0.2857
   6.000   0.9464   0.00917   0.00393  -0.0467  0.3192  0.5811  -1.9276   0.0000   0.2834
   6.500   1.0064   0.00961   0.00430  -0.0484  0.3051  0.5818  -2.0216   0.0000   0.2815
   7.000   1.0711   0.01002   0.00467  -0.0512  0.2931  0.5823  -2.1211   0.0000   0.2805
   7.500   1.1376   0.01044   0.00506  -0.0544  0.2823  0.5828  -2.2235   0.0000   0.2799
   8.000   1.1930   0.01096   0.00554  -0.0555  0.2700  0.5839  -2.3160   0.0000   0.2778
   8.500   1.2484   0.01137   0.00594  -0.0565  0.2616  0.5867  -2.4165   0.0000   0.2758
   9.000   1.2932   0.01200   0.00655  -0.0558  0.2501  0.5898  -2.5190   0.0000   0.2727
   9.500   1.3405   0.01249   0.00707  -0.0553  0.2442  0.5927  -2.6258   0.0000   0.2701
  10.000   1.3772   0.01335   0.00791  -0.0534  0.2332  0.5954  -2.7204   0.0000   0.2667
  10.500   1.4170   0.01411   0.00870  -0.0521  0.2272  0.5978  -2.8197   0.0000   0.2637
  11.000   1.4454   0.01542   0.00999  -0.0497  0.2168  0.5998  -2.9048   0.0000   0.2603
  11.500   1.4789   0.01664   0.01126  -0.0482  0.2112  0.6017  -3.0006   0.0000   0.2575
  12.000   1.5004   0.01879   0.01340  -0.0461  0.2020  0.6033  -3.0802   0.0000   0.2545
  12.500   1.5292   0.02074   0.01542  -0.0452  0.1973  0.6046  -3.1737   0.0000   0.2523
  13.000   1.5500   0.02325   0.01795  -0.0438  0.1910  0.6056  -3.2645   0.0000   0.2498
  13.500   1.5665   0.02619   0.02094  -0.0425  0.1839  0.6084  -3.3543   0.0000   0.2475
  14.000   1.5888   0.02886   0.02369  -0.0419  0.1794  0.6139  -3.4539   0.0000   0.2455
  14.500   1.5961   0.03268   0.02755  -0.0405  0.1709  0.6184  -3.5291   0.0000   0.2433
  15.000   1.6117   0.03586   0.03080  -0.0396  0.1659  0.6223  -3.6234   0.0000   0.2413
  15.500   1.6166   0.03996   0.03491  -0.0384  0.1579  0.6256  -3.7013   0.0000   0.2391
  16.000   1.6281   0.04357   0.03858  -0.0376  0.1529  0.6283  -3.7931   0.0000   0.2372
  16.500   1.6382   0.04733   0.04237  -0.0369  0.1474  0.6332  -3.8854   0.0000   0.2353
  17.000   1.6469   0.05141   0.04653  -0.0364  0.1422  0.6419  -3.9741   0.0000   0.2336
  17.500   1.6650   0.05459   0.04979  -0.0363  0.1380  0.6494  -4.0831   0.0000   0.2320
  19.500   1.6852   0.07331   0.06882  -0.0365  0.1147  0.7036  -4.4032   0.0000   0.2264
  20.000   1.6812   0.07925   0.07486  -0.0371  0.1084  0.7315  -4.4599   0.0000   0.2253
  20.500   1.6907   0.08392   0.07973  -0.0382  0.1052  0.7845  -4.5509   0.0000   0.2245
  21.000   1.6679   0.08949   0.08578  -0.0348  0.1013  0.9969  -4.5741   0.0000   0.2212
  21.500   1.6895   0.09741   0.09378  -0.0428  0.0957  1.0000  -4.6785   0.0000   0.2242
  22.000   1.6746   0.10498   0.10142  -0.0444  0.0906  1.0000  -4.7567   0.0000   0.2238
  22.500   1.6663   0.11183   0.10836  -0.0462  0.0872  1.0000  -4.8793   0.0000   0.2235
  23.000   1.6523   0.11946   0.11608  -0.0484  0.0831  1.0000  -4.9803   0.0000   0.2235
  23.500   1.6378   0.12728   0.12398  -0.0511  0.0792  1.0000  -5.0766   0.0000   0.2238
  24.000   1.6232   0.13518   0.13196  -0.0542  0.0754  1.0000  -5.1688   0.0000   0.2244
  24.500   1.6077   0.14325   0.14011  -0.0577  0.0716  1.0000  -5.2533   0.0000   0.2252
  25.000   1.6007   0.15017   0.14709  -0.0611  0.0681  1.0000  -5.3703   0.0000   0.2258
  25.500   1.5865   0.15822   0.15522  -0.0653  0.0646  1.0000  -5.4523   0.0000   0.2271
  26.000   1.5769   0.16561   0.16270  -0.0696  0.0620  1.0000  -5.5507   0.0000   0.2284
  26.500   1.5606   0.17404   0.17119  -0.0746  0.0586  1.0000  -5.6129   0.0000   0.2303
  27.000   1.5582   0.18032   0.17757  -0.0789  0.0565  1.0000  -5.7389   0.0000   0.2313
  27.500   1.5505   0.18748   0.18477  -0.0838  0.0533  1.0000  -5.8358   0.0000   0.2330
  28.000   1.5428   0.19467   0.19204  -0.0890  0.0507  1.0000  -5.9290   0.0000   0.2347
  28.500   1.5301   0.20272   0.20015  -0.0949  0.0473  1.0000  -5.9967   0.0000   0.2372
  29.000   1.5302   0.20856   0.20604  -0.0997  0.0445  1.0000  -6.1339   0.0000   0.2385
  29.500   1.5174   0.21662   0.21414  -0.1060  0.0410  1.0000  -6.1920   0.0000   0.2412
  30.000   1.5063   0.22433   0.22191  -0.1123  0.0374  1.0000  -6.2540   0.0000   0.2440
  30.500   1.4953   0.23207   0.22968  -0.1189  0.0327  1.0000  -6.3098   0.0000   0.2469
  31.000   1.4770   0.24128   0.23891  -0.1265  0.0274  1.0000  -6.3085   0.0000   0.2511
  31.500   1.4628   0.24979   0.24743  -0.1338  0.0226  1.0000  -6.3251   0.0000   0.2549
  32.000   1.4461   0.25894   0.25661  -0.1417  0.0184  1.0000  -6.3108   0.0000   0.2594
  32.500   1.4287   0.26834   0.26602  -0.1498  0.0135  1.0000  -6.2774   0.0000   0.2642
  33.000   1.4104   0.27814   0.27583  -0.1582  0.0096  1.0000  -6.2196   0.0000   0.2696
  33.500   1.4012   0.28600   0.28375  -0.1655  0.0081  1.0000  -6.2263   0.0000   0.2734
  34.000   1.3949   0.29316   0.29097  -0.1724  0.0073  1.0000  -6.2490   0.0000   0.2767
  34.500   1.3913   0.29966   0.29754  -0.1790  0.0068  1.0000  -6.2911   0.0000   0.2795
  35.000   1.3896   0.30567   0.30359  -0.1853  0.0063  1.0000  -6.3528   0.0000   0.2819
  35.500   1.3860   0.31209   0.31008  -0.1919  0.0059  1.0000  -6.3918   0.0000   0.2847
  36.000   1.3868   0.31725   0.31530  -0.1978  0.0057  1.0000  -6.4780   0.0000   0.2865
  36.500   1.3886   0.32206   0.32015  -0.2036  0.0055  1.0000  -6.5753   0.0000   0.2879
  37.000   1.3876   0.32751   0.32566  -0.2098  0.0052  1.0000  -6.6357   0.0000   0.2900
  37.500   1.3884   0.33236   0.33053  -0.2157  0.0048  1.0000  -6.7270   0.0000   0.2916
  38.000   1.3885   0.33728   0.33549  -0.2217  0.0046  1.0000  -6.8055   0.0000   0.2932
  38.500   1.3919   0.34112   0.33938  -0.2271  0.0044  1.0000  -6.9440   0.0000   0.2940
  39.000   1.3951   0.34489   0.34319  -0.2326  0.0043  1.0000  -7.0835   0.0000   0.2946
  39.500   1.3958   0.34915   0.34750  -0.2384  0.0041  1.0000  -7.1865   0.0000   0.2959
  40.000   1.3984   0.35278   0.35115  -0.2438  0.0039  1.0000  -7.3213   0.0000   0.2965
  40.500   1.3983   0.35701   0.35541  -0.2497  0.0036  1.0000  -7.4148   0.0000   0.2977
  41.000   1.4009   0.36032   0.35873  -0.2551  0.0033  1.0000  -7.5506   0.0000   0.2982
  41.500   1.4032   0.36334   0.36179  -0.2605  0.0033  1.0000  -7.6882   0.0000   0.2985
  43.500   1.4057   0.37369   0.37229  -0.2829  0.0027  1.0000  -8.1367   0.0000   0.3007
  44.000   1.4061   0.37572   0.37435  -0.2884  0.0026  1.0000  -8.2522   0.0000   0.3011
  44.500   1.4073   0.37743   0.37606  -0.2937  0.0024  1.0000  -8.3894   0.0000   0.3010
  45.000   1.4082   0.37902   0.37768  -0.2990  0.0023  0.9999  -8.5254   0.0000   0.3009
  45.500   1.4053   0.38153   0.38025  -0.3049  0.0022  0.9999  -8.5932   0.0000   0.3018


