xflr5 v6.33

 Calculated polar for: Bell A821201 v4

 1 1 Reynolds number fixed          Mach number fixed         

 xtrf =   1.000 (top)        1.000 (bottom)
 Mach =   0.000     Re =     3.300 e 6     Ncrit =   9.000

  alpha     CL        CD       CDp       Cm    Top Xtr Bot Xtr   Cpmin    Chinge    XCp    
 ------- -------- --------- --------- -------- ------- ------- -------- --------- ---------
 -25.500  -0.7171   0.18824   0.18662  -0.0323  0.9942  0.0099  -7.7302   0.0000   0.1372
 -25.000  -0.7550   0.17173   0.16991  -0.0433  0.9936  0.0101  -8.3809   0.0000   0.1276
 -24.500  -0.7757   0.15870   0.15674  -0.0526  0.9926  0.0101  -8.7157   0.0000   0.1193
 -24.000  -0.8047   0.14748   0.14538  -0.0580  0.9907  0.0102  -8.9999   0.0000   0.1177
 -23.500  -0.8286   0.13702   0.13479  -0.0632  0.9897  0.0103  -9.1990   0.0000   0.1158
 -23.000  -0.8537   0.12573   0.12335  -0.0695  0.9884  0.0103  -9.3940   0.0000   0.1129
 -22.500  -0.8756   0.11492   0.11240  -0.0758  0.9862  0.0103  -9.5338   0.0000   0.1100
 -22.000  -0.8936   0.10483   0.10216  -0.0815  0.9825  0.0104  -9.6143   0.0000   0.1072
 -21.500  -0.8911   0.09358   0.09070  -0.0923  0.9508  0.0104  -9.5874   0.0000   0.0960
 -21.000  -0.8984   0.08581   0.08213  -0.0967  0.7849  0.0105  -9.5438   0.0000   0.0937
 -20.500  -0.9077   0.07826   0.07440  -0.1002  0.7656  0.0105  -9.4946   0.0000   0.0928
 -20.000  -0.9103   0.07178   0.06771  -0.1029  0.7371  0.0105  -9.3864   0.0000   0.0916
 -19.500  -0.9080   0.06590   0.06144  -0.1057  0.6495  0.0106  -9.2417   0.0000   0.0897
 -19.000  -0.9040   0.06056   0.05593  -0.1076  0.6296  0.0106  -9.0756   0.0000   0.0884
 -18.500  -0.8958   0.05587   0.05110  -0.1091  0.6144  0.0106  -8.8784   0.0000   0.0870
 -18.000  -0.8845   0.05175   0.04688  -0.1100  0.6068  0.0106  -8.6583   0.0000   0.0856
 -17.500  -0.8697   0.04808   0.04310  -0.1106  0.5995  0.0107  -8.4170   0.0000   0.0838
 -17.000  -0.8536   0.04463   0.03955  -0.1111  0.5901  0.0107  -8.1685   0.0000   0.0819
 -16.500  -0.8365   0.04140   0.03625  -0.1112  0.5871  0.0107  -7.9147   0.0000   0.0800
 -16.000  -0.8141   0.03876   0.03355  -0.1111  0.5849  0.0108  -7.6331   0.0000   0.0772
 -15.500  -0.7932   0.03605   0.03077  -0.1110  0.5819  0.0108  -7.3624   0.0000   0.0747
 -15.000  -0.7672   0.03380   0.02846  -0.1107  0.5784  0.0108  -7.0690   0.0000   0.0709
 -14.500  -0.7426   0.03148   0.02607  -0.1104  0.5746  0.0108  -6.7860   0.0000   0.0673
 -14.000  -0.7137   0.02956   0.02409  -0.1100  0.5704  0.0109  -6.4865   0.0000   0.0623
 -13.500  -0.6861   0.02755   0.02203  -0.1096  0.5668  0.0109  -6.1978   0.0000   0.0573
 -13.000  -0.6555   0.02588   0.02032  -0.1090  0.5650  0.0109  -5.8996   0.0000   0.0512
 -12.500  -0.6284   0.02405   0.01845  -0.1081  0.5645  0.0109  -5.6244   0.0000   0.0459
 -12.000  -0.6014   0.02227   0.01662  -0.1070  0.5639  0.0110  -5.3609   0.0000   0.0404
 -11.500  -0.5717   0.02058   0.01489  -0.1062  0.5630  0.0111  -5.0899   0.0000   0.0331
 -11.000  -0.5389   0.01902   0.01329  -0.1056  0.5619  0.0112  -4.8106   0.0000   0.0230
 -10.500  -0.5011   0.01762   0.01186  -0.1055  0.5607  0.0113  -4.5184   0.0000   0.0083
 -10.000  -0.4560   0.01631   0.01052  -0.1066  0.5591  0.0114  -4.2083   0.0000  -0.0156
  -9.500  -0.4065   0.01509   0.00928  -0.1084  0.5573  0.0116  -3.8915   0.0000  -0.0496
  -9.000  -0.3668   0.01393   0.00808  -0.1080  0.5555  0.0118  -3.6104   0.0000  -0.0785
  -8.500  -0.3305   0.01281   0.00695  -0.1069  0.5536  0.0121  -3.3448   0.0000  -0.1083
  -8.000  -0.3049   0.01171   0.00582  -0.1038  0.5514  0.0125  -3.1258   0.0000  -0.1254
  -7.500  -0.2801   0.01111   0.00520  -0.0989  0.5489  0.0128  -2.9216   0.0000  -0.1379
  -7.000  -0.2644   0.01073   0.00480  -0.0914  0.5460  0.0132  -2.7440   0.0000  -0.1299
  -6.500  -0.2325   0.01043   0.00449  -0.0869  0.5426  0.0136  -2.5316   0.0000  -0.1593
  -6.000  -0.1951   0.01004   0.00411  -0.0835  0.5420  0.0152  -2.3216   0.0000  -0.2160
  -5.500  -0.1551   0.00965   0.00375  -0.0805  0.5406  0.0194  -2.1023   0.0000  -0.3121
  -5.000  -0.1178   0.00916   0.00337  -0.0770  0.5389  0.0396  -1.8924   0.0000  -0.4538
  -4.500  -0.0793   0.00867   0.00302  -0.0736  0.5371  0.0706  -1.6823   0.0000  -0.7441
  -4.000  -0.0408   0.00816   0.00269  -0.0703  0.5341  0.1132  -1.4773   0.0000  -1.5802
  -3.500  -0.0063   0.00756   0.00233  -0.0662  0.5308  0.1831  -1.2871   0.0000  -10.8516
  -3.000   0.0232   0.00683   0.00195  -0.0610  0.5274  0.2847  -1.1130   0.0000   3.0065
  -2.500   0.0420   0.00588   0.00150  -0.0536  0.5232  0.4384  -0.9648   0.0000   1.5848
  -2.000   0.0877   0.00553   0.00142  -0.0515  0.5210  0.5185  -0.8700   0.0000   0.8559
  -1.500   0.1432   0.00551   0.00145  -0.0512  0.5198  0.5372  -0.9212   0.0000   0.6134
  -1.000   0.1999   0.00553   0.00145  -0.0511  0.5167  0.5422  -0.9736   0.0000   0.5061
  -0.500   0.2549   0.00554   0.00148  -0.0508  0.5106  0.5521  -1.0254   0.0000   0.4463
   0.000   0.3091   0.00564   0.00152  -0.0503  0.5015  0.5561  -1.0793   0.0000   0.4076
   0.500   0.3666   0.00567   0.00154  -0.0505  0.4977  0.5574  -1.1363   0.0000   0.3811
   1.000   0.4223   0.00576   0.00158  -0.0505  0.4874  0.5587  -1.2012   0.0000   0.3615
   1.500   0.4769   0.00590   0.00165  -0.0502  0.4719  0.5599  -1.2674   0.0000   0.3462
   2.000   0.5280   0.00620   0.00180  -0.0493  0.4424  0.5606  -1.3314   0.0000   0.3334
   2.500   0.5784   0.00655   0.00200  -0.0484  0.4114  0.5609  -1.3978   0.0000   0.3228
   3.000   0.6333   0.00687   0.00219  -0.0485  0.3846  0.5632  -1.4695   0.0000   0.3150
   3.500   0.6907   0.00715   0.00239  -0.0492  0.3647  0.5654  -1.5436   0.0000   0.3090
   4.000   0.7497   0.00745   0.00261  -0.0503  0.3479  0.5675  -1.6200   0.0000   0.3041
   4.500   0.8117   0.00770   0.00283  -0.0520  0.3352  0.5695  -1.6995   0.0000   0.3005
   5.000   0.8750   0.00800   0.00308  -0.0541  0.3220  0.5716  -1.7868   0.0000   0.2976
   5.500   0.9395   0.00835   0.00337  -0.0566  0.3078  0.5731  -1.8835   0.0000   0.2953
   6.000   1.0155   0.00867   0.00365  -0.0616  0.2961  0.5745  -1.9922   0.0000   0.2951
   6.500   1.0769   0.00903   0.00396  -0.0635  0.2835  0.5758  -2.0888   0.0000   0.2927
   7.000   1.1314   0.00942   0.00430  -0.0640  0.2731  0.5770  -2.1798   0.0000   0.2895
   7.500   1.1851   0.00974   0.00461  -0.0642  0.2644  0.5782  -2.2710   0.0000   0.2864
   8.000   1.2327   0.01022   0.00503  -0.0635  0.2519  0.5793  -2.3569   0.0000   0.2830
   8.500   1.2819   0.01058   0.00540  -0.0630  0.2458  0.5804  -2.4557   0.0000   0.2798
   9.000   1.3249   0.01115   0.00592  -0.0616  0.2347  0.5813  -2.5571   0.0000   0.2763
   9.500   1.3696   0.01162   0.00640  -0.0605  0.2283  0.5821  -2.6616   0.0000   0.2731
  10.000   1.4066   0.01237   0.00710  -0.0584  0.2178  0.5826  -2.7575   0.0000   0.2695
  10.500   1.4466   0.01303   0.00778  -0.0568  0.2118  0.5834  -2.8580   0.0000   0.2663
  11.000   1.4783   0.01407   0.00880  -0.0544  0.2022  0.5872  -2.9482   0.0000   0.2629
  11.500   1.5145   0.01503   0.00980  -0.0529  0.1971  0.5911  -3.0496   0.0000   0.2600
  12.000   1.5430   0.01645   0.01125  -0.0509  0.1907  0.5945  -3.1412   0.0000   0.2570
  12.500   1.5698   0.01824   0.01307  -0.0492  0.1838  0.5973  -3.2353   0.0000   0.2543
  13.000   1.5980   0.02019   0.01508  -0.0482  0.1792  0.5999  -3.3430   0.0000   0.2520
  13.500   1.6129   0.02306   0.01796  -0.0464  0.1700  0.6021  -3.4320   0.0000   0.2494
  14.000   1.6327   0.02569   0.02063  -0.0451  0.1650  0.6039  -3.5294   0.0000   0.2471
  14.500   1.6396   0.02942   0.02436  -0.0434  0.1558  0.6051  -3.6072   0.0000   0.2446
  15.000   1.6536   0.03265   0.02764  -0.0422  0.1517  0.6060  -3.7022   0.0000   0.2425
  15.500   1.6610   0.03646   0.03149  -0.0410  0.1461  0.6116  -3.7862   0.0000   0.2403
  16.000   1.6747   0.03988   0.03499  -0.0402  0.1420  0.6178  -3.8870   0.0000   0.2384
  16.500   1.6880   0.04332   0.03850  -0.0395  0.1379  0.6227  -3.9875   0.0000   0.2365
  17.000   1.6934   0.04746   0.04266  -0.0386  0.1303  0.6266  -4.0718   0.0000   0.2346
  17.500   1.7031   0.05136   0.04662  -0.0381  0.1263  0.6294  -4.1647   0.0000   0.2328
  18.000   1.7108   0.05545   0.05073  -0.0377  0.1188  0.6400  -4.2532   0.0000   0.2311
  18.500   1.7166   0.05991   0.05527  -0.0375  0.1141  0.6484  -4.3372   0.0000   0.2295
  19.000   1.7167   0.06496   0.06036  -0.0372  0.1078  0.6570  -4.4078   0.0000   0.2280
  19.500   1.7282   0.06898   0.06447  -0.0375  0.1044  0.6721  -4.5034   0.0000   0.2266
  20.000   1.7232   0.07480   0.07036  -0.0377  0.0989  0.6867  -4.5616   0.0000   0.2254
  20.500   1.7268   0.07987   0.07555  -0.0384  0.0954  0.7070  -4.6424   0.0000   0.2242
  21.000   1.7193   0.08629   0.08208  -0.0392  0.0894  0.7370  -4.6948   0.0000   0.2234
  21.500   1.7234   0.09156   0.08755  -0.0406  0.0861  0.7942  -4.7831   0.0000   0.2226
  22.500   1.7129   0.10607   0.10261  -0.0457  0.0776  1.0000  -5.0545   0.0000   0.2226
  23.000   1.6942   0.11414   0.11073  -0.0477  0.0731  1.0000  -5.1429   0.0000   0.2225
  23.500   1.6823   0.12147   0.11816  -0.0500  0.0700  1.0000  -5.2544   0.0000   0.2225
  24.000   1.6618   0.13004   0.12681  -0.0531  0.0658  1.0000  -5.3285   0.0000   0.2230
  24.500   1.6491   0.13760   0.13446  -0.0562  0.0631  1.0000  -5.4300   0.0000   0.2235
  25.000   1.6318   0.14590   0.14284  -0.0599  0.0601  1.0000  -5.5077   0.0000   0.2245
  25.500   1.6202   0.15346   0.15049  -0.0637  0.0577  1.0000  -5.6062   0.0000   0.2254
  26.000   1.6162   0.15990   0.15699  -0.0674  0.0550  1.0000  -5.7356   0.0000   0.2260
  26.500   1.6011   0.16801   0.16517  -0.0720  0.0519  1.0000  -5.8106   0.0000   0.2276
  27.000   1.5911   0.17537   0.17261  -0.0767  0.0496  1.0000  -5.9053   0.0000   0.2290
  27.500   1.5754   0.18369   0.18100  -0.0821  0.0464  1.0000  -5.9667   0.0000   0.2311
  28.000   1.5666   0.19097   0.18834  -0.0872  0.0432  1.0000  -6.0628   0.0000   0.2328
  28.500   1.5595   0.19796   0.19537  -0.0924  0.0399  1.0000  -6.1675   0.0000   0.2345
  29.000   1.5432   0.20654   0.20400  -0.0988  0.0361  1.0000  -6.2146   0.0000   0.2373
  29.500   1.5247   0.21557   0.21307  -0.1056  0.0312  1.0000  -6.2410   0.0000   0.2407
  30.000   1.5029   0.22517   0.22269  -0.1131  0.0258  1.0000  -6.2374   0.0000   0.2447
  30.500   1.4845   0.23433   0.23189  -0.1205  0.0216  1.0000  -6.2430   0.0000   0.2487
  31.000   1.4684   0.24318   0.24078  -0.1279  0.0179  1.0000  -6.2534   0.0000   0.2526
  31.500   1.4493   0.25277   0.25040  -0.1359  0.0133  1.0000  -6.2302   0.0000   0.2573
  32.000   1.4296   0.26264   0.26028  -0.1442  0.0090  1.0000  -6.1884   0.0000   0.2624
  32.500   1.4238   0.26968   0.26735  -0.1507  0.0075  1.0000  -6.2430   0.0000   0.2653
  33.000   1.4189   0.27650   0.27424  -0.1573  0.0069  1.0000  -6.2988   0.0000   0.2682
  33.500   1.4116   0.28383   0.28165  -0.1642  0.0063  1.0000  -6.3274   0.0000   0.2715
  34.000   1.4082   0.29026   0.28815  -0.1706  0.0059  1.0000  -6.3832   0.0000   0.2742
  34.500   1.4103   0.29530   0.29324  -0.1763  0.0057  1.0000  -6.4902   0.0000   0.2757
  35.000   1.4068   0.30161   0.29961  -0.1827  0.0054  1.0000  -6.5420   0.0000   0.2783
  35.500   1.4071   0.30695   0.30500  -0.1887  0.0051  1.0000  -6.6359   0.0000   0.2801
  36.000   1.4019   0.31356   0.31166  -0.1955  0.0047  1.0000  -6.6634   0.0000   0.2831
  36.500   1.4003   0.31916   0.31733  -0.2018  0.0045  1.0000  -6.7277   0.0000   0.2853
  37.500   1.4025   0.32861   0.32689  -0.2134  0.0042  1.0000  -6.9230   0.0000   0.2881
  38.000   1.4049   0.33279   0.33110  -0.2189  0.0040  1.0000  -7.0455   0.0000   0.2891
  38.500   1.4027   0.33808   0.33644  -0.2252  0.0038  1.0000  -7.1166   0.0000   0.2911
  39.000   1.4030   0.34260   0.34098  -0.2310  0.0035  1.0000  -7.2208   0.0000   0.2925
  39.500   1.4012   0.34758   0.34601  -0.2372  0.0033  1.0000  -7.2899   0.0000   0.2943
  40.000   1.4044   0.35092   0.34939  -0.2424  0.0032  0.9999  -7.4402   0.0000   0.2947
  40.500   1.4045   0.35504   0.35355  -0.2482  0.0031  0.9999  -7.5412   0.0000   0.2958
  41.000   1.4061   0.35851   0.35705  -0.2537  0.0030  0.9999  -7.6704   0.0000   0.2964
  41.500   1.4077   0.36188   0.36045  -0.2592  0.0028  0.9999  -7.8001   0.0000   0.2969
  42.000   1.4061   0.36569   0.36429  -0.2651  0.0027  0.9999  -7.8737   0.0000   0.2982
  42.500   1.4067   0.36839   0.36701  -0.2707  0.0025  0.9999  -7.9892   0.0000   0.2988
  43.000   1.4074   0.37080   0.36944  -0.2763  0.0023  0.9999  -8.1035   0.0000   0.2992
  43.500   1.4070   0.37314   0.37182  -0.2820  0.0022  0.9998  -8.2037   0.0000   0.2999
  44.000   1.4082   0.37491   0.37362  -0.2873  0.0022  0.9998  -8.3382   0.0000   0.2999
  44.500   1.4068   0.37718   0.37594  -0.2931  0.0021  0.9998  -8.4218   0.0000   0.3006
  45.000   1.4067   0.37901   0.37780  -0.2985  0.0020  0.9998  -8.5363   0.0000   0.3008
  45.500   1.4061   0.38084   0.37965  -0.3040  0.0019  0.9998  -8.6548   0.0000   0.3011


