xflr5 v6.33

 Calculated polar for: Bell A821201 v4

 1 1 Reynolds number fixed          Mach number fixed         

 xtrf =   1.000 (top)        1.000 (bottom)
 Mach =   0.000     Re =     1.100 e 6     Ncrit =   9.000

  alpha     CL        CD       CDp       Cm    Top Xtr Bot Xtr   Cpmin    Chinge    XCp    
 ------- -------- --------- --------- -------- ------- ------- -------- --------- ---------
 -29.000  -0.3649   0.24831   0.24674   0.0074  1.0000  0.0096  -0.9797   0.0000   0.2244
 -28.500  -0.3570   0.24410   0.24254   0.0050  1.0000  0.0104  -0.9997   0.0000   0.2182
 -28.000  -0.3555   0.23740   0.23582   0.0021  1.0000  0.0109  -1.2046   0.0000   0.2090
 -26.500  -0.3277   0.22614   0.22457  -0.0041  1.0000  0.0113  -1.1541   0.0000   0.1901
 -26.000  -0.3178   0.22273   0.22117  -0.0062  1.0000  0.0115  -1.1191   0.0000   0.1829
 -25.500  -0.3083   0.21911   0.21755  -0.0083  1.0000  0.0119  -1.0985   0.0000   0.1751
 -25.000  -0.2993   0.21524   0.21369  -0.0104  1.0000  0.0125  -1.0936   0.0000   0.1668
 -21.500  -0.7444   0.14324   0.14062  -0.0422  1.0000  0.0143  -7.1540   0.0000   0.1398
 -21.000  -0.7979   0.12561   0.12266  -0.0521  1.0000  0.0142  -7.6713   0.0000   0.1341
 -20.500  -0.8253   0.11267   0.10946  -0.0600  0.9997  0.0142  -7.8928   0.0000   0.1289
 -20.000  -0.8290   0.10022   0.09677  -0.0710  0.9978  0.0143  -7.9630   0.0000   0.1172
 -19.500  -0.8230   0.08971   0.08605  -0.0808  0.9948  0.0144  -7.9334   0.0000   0.1057
 -19.000  -0.8204   0.08149   0.07767  -0.0862  0.9901  0.0144  -7.8639   0.0000   0.1002
 -18.500  -0.8156   0.07434   0.07037  -0.0902  0.9834  0.0145  -7.7594   0.0000   0.0958
 -18.000  -0.7447   0.06496   0.06053  -0.1091  0.8719  0.0147  -7.4014   0.0000   0.0585
 -17.500  -0.7334   0.06050   0.05546  -0.1111  0.7650  0.0148  -7.2342   0.0000   0.0547
 -17.000  -0.7203   0.05631   0.05085  -0.1126  0.6829  0.0149  -7.0527   0.0000   0.0508
 -16.500  -0.7047   0.05242   0.04672  -0.1139  0.6523  0.0151  -6.8565   0.0000   0.0465
 -16.000  -0.6871   0.04890   0.04302  -0.1147  0.6381  0.0152  -6.6483   0.0000   0.0419
 -15.500  -0.6671   0.04576   0.03977  -0.1151  0.6301  0.0153  -6.4267   0.0000   0.0370
 -15.000  -0.6466   0.04276   0.03665  -0.1154  0.6238  0.0154  -6.2035   0.0000   0.0317
 -14.500  -0.6220   0.04014   0.03392  -0.1157  0.6173  0.0155  -5.9631   0.0000   0.0247
 -14.000  -0.5972   0.03755   0.03122  -0.1160  0.6111  0.0157  -5.7242   0.0000   0.0168
 -13.500  -0.5707   0.03526   0.02887  -0.1159  0.6087  0.0158  -5.4783   0.0000   0.0083
 -13.000  -0.5436   0.03298   0.02653  -0.1158  0.6060  0.0159  -5.2338   0.0000  -0.0015
 -12.500  -0.5135   0.03093   0.02441  -0.1159  0.6031  0.0161  -4.9803   0.0000  -0.0142
 -12.000  -0.4807   0.02896   0.02238  -0.1164  0.6002  0.0162  -4.7213   0.0000  -0.0308
 -11.500  -0.4437   0.02711   0.02045  -0.1175  0.5971  0.0164  -4.4530   0.0000  -0.0542
 -11.000  -0.4040   0.02544   0.01870  -0.1187  0.5936  0.0166  -4.1797   0.0000  -0.0845
 -10.500  -0.3666   0.02389   0.01708  -0.1193  0.5899  0.0168  -3.9174   0.0000  -0.1174
 -10.000  -0.3344   0.02231   0.01545  -0.1189  0.5879  0.0171  -3.6794   0.0000  -0.1485
  -9.500  -0.3080   0.02069   0.01382  -0.1172  0.5868  0.0178  -3.4620   0.0000  -0.1743
  -9.000  -0.2791   0.01932   0.01244  -0.1154  0.5852  0.0184  -3.2354   0.0000  -0.2083
  -8.500  -0.2500   0.01806   0.01117  -0.1134  0.5836  0.0192  -3.0123   0.0000  -0.2500
  -8.000  -0.2216   0.01688   0.00996  -0.1109  0.5819  0.0201  -2.8206   0.0000  -0.2991
  -7.500  -0.1999   0.01554   0.00861  -0.1075  0.5801  0.0219  -2.6593   0.0000  -0.3373
  -7.000  -0.1836   0.01419   0.00725  -0.1031  0.5782  0.0249  -2.5098   0.0000  -0.3609
  -6.500  -0.1797   0.01310   0.00619  -0.0953  0.5762  0.0350  -2.3871   0.0000  -0.3261
  -6.000  -0.1794   0.01238   0.00560  -0.0856  0.5738  0.0640  -2.2648   0.0000  -0.2689
  -5.500  -0.1573   0.01166   0.00506  -0.0798  0.5715  0.1047  -2.0890   0.0000  -0.3001
  -5.000  -0.1329   0.01084   0.00453  -0.0744  0.5680  0.1749  -1.9084   0.0000  -0.3559
  -4.500  -0.1123   0.00976   0.00391  -0.0683  0.5643  0.2919  -1.7388   0.0000  -0.4063
  -4.000  -0.0983   0.00834   0.00313  -0.0606  0.5620  0.4525  -1.5852   0.0000  -0.4138
  -3.500  -0.0539   0.00812   0.00312  -0.0580  0.5593  0.5230  -1.3703   0.0000  -0.8994
  -3.000  -0.0004   0.00824   0.00322  -0.0572  0.5568  0.5438  -1.1456   0.0000  -145.8927
  -2.500   0.0520   0.00842   0.00339  -0.0561  0.5532  0.5569  -0.9324   0.0000   1.3765
  -2.000   0.1038   0.00861   0.00357  -0.0549  0.5494  0.5686  -0.8769   0.0000   0.7946
  -1.500   0.1612   0.00900   0.00394  -0.0549  0.5445  0.5771  -0.9292   0.0000   0.5956
  -1.000   0.2165   0.00909   0.00399  -0.0546  0.5417  0.5798  -0.9806   0.0000   0.5025
  -0.500   0.2684   0.00907   0.00394  -0.0536  0.5394  0.5816  -1.0305   0.0000   0.4469
   0.000   0.3200   0.00909   0.00395  -0.0525  0.5357  0.5830  -1.0832   0.0000   0.4092
   0.500   0.3692   0.00880   0.00362  -0.0512  0.5311  0.5868  -1.1350   0.0000   0.3820
   1.000   0.4172   0.00870   0.00347  -0.0495  0.5247  0.5887  -1.1949   0.0000   0.3606
   1.500   0.4638   0.00863   0.00338  -0.0475  0.5186  0.5902  -1.2553   0.0000   0.3433
   2.000   0.5105   0.00854   0.00331  -0.0455  0.5126  0.5918  -1.3163   0.0000   0.3291
   2.500   0.5559   0.00851   0.00324  -0.0433  0.5044  0.5935  -1.3768   0.0000   0.3169
   3.000   0.6053   0.00852   0.00325  -0.0421  0.4953  0.5948  -1.4439   0.0000   0.3076
   3.500   0.6502   0.00862   0.00328  -0.0399  0.4805  0.5963  -1.5084   0.0000   0.2987
   4.000   0.6933   0.00881   0.00340  -0.0375  0.4578  0.5977  -1.5718   0.0000   0.2907
   4.500   0.7330   0.00918   0.00364  -0.0346  0.4294  0.5992  -1.6327   0.0000   0.2830
   5.500   0.8140   0.01014   0.00439  -0.0296  0.3840  0.6023  -1.7669   0.0000   0.2706
   7.000   0.9550   0.01165   0.00574  -0.0272  0.3375  0.6052  -2.0078   0.0000   0.2605
   7.500   1.0037   0.01230   0.00636  -0.0272  0.3241  0.6059  -2.0905   0.0000   0.2584
   8.000   1.0681   0.01287   0.00692  -0.0306  0.3123  0.6086  -2.1890   0.0000   0.2593
   8.500   1.1306   0.01355   0.00761  -0.0338  0.3000  0.6114  -2.2866   0.0000   0.2598
   9.000   1.1908   0.01453   0.00856  -0.0372  0.2866  0.6140  -2.3971   0.0000   0.2603
   9.500   1.2429   0.01535   0.00944  -0.0386  0.2775  0.6165  -2.5062   0.0000   0.2594
  10.000   1.2805   0.01671   0.01080  -0.0382  0.2668  0.6192  -2.5985   0.0000   0.2572
  10.500   1.3179   0.01807   0.01221  -0.0378  0.2587  0.6217  -2.6913   0.0000   0.2551
  11.000   1.3451   0.02028   0.01445  -0.0371  0.2493  0.6240  -2.7701   0.0000   0.2529
  11.500   1.3771   0.02219   0.01642  -0.0368  0.2423  0.6262  -2.8571   0.0000   0.2510
  12.000   1.3938   0.02522   0.01946  -0.0356  0.2327  0.6280  -2.9254   0.0000   0.2487
  12.500   1.4200   0.02761   0.02192  -0.0351  0.2265  0.6294  -3.0085   0.0000   0.2467
  13.000   1.4344   0.03111   0.02546  -0.0345  0.2177  0.6344  -3.0770   0.0000   0.2449
  13.500   1.4562   0.03392   0.02837  -0.0341  0.2113  0.6391  -3.1672   0.0000   0.2431
  14.000   1.4671   0.03757   0.03206  -0.0333  0.2037  0.6432  -3.2435   0.0000   0.2411
  14.500   1.4833   0.04087   0.03543  -0.0327  0.1976  0.6474  -3.3286   0.0000   0.2393
  15.000   1.4982   0.04430   0.03892  -0.0322  0.1914  0.6512  -3.4140   0.0000   0.2375
  15.500   1.5082   0.04822   0.04288  -0.0317  0.1840  0.6564  -3.4928   0.0000   0.2357
  16.000   1.5287   0.05135   0.04614  -0.0318  0.1789  0.6648  -3.5962   0.0000   0.2343
  16.500   1.5376   0.05554   0.05036  -0.0315  0.1713  0.6725  -3.6771   0.0000   0.2327
  17.000   1.5543   0.05912   0.05406  -0.0317  0.1661  0.6827  -3.7775   0.0000   0.2314
  17.500   1.5631   0.06350   0.05852  -0.0318  0.1595  0.6961  -3.8624   0.0000   0.2300
  18.000   1.5736   0.06784   0.06299  -0.0322  0.1537  0.7158  -3.9502   0.0000   0.2288
  18.500   1.5801   0.07277   0.06807  -0.0329  0.1483  0.7454  -4.0285   0.0000   0.2278
  19.000   1.5829   0.07829   0.07381  -0.0340  0.1421  0.8033  -4.0970   0.0000   0.2271
  19.500   1.6094   0.08351   0.07947  -0.0377  0.1365  1.0000  -4.2136   0.0000   0.2277
  20.000   1.6004   0.09029   0.08629  -0.0386  0.1302  1.0000  -4.2541   0.0000   0.2269
  20.500   1.6044   0.09559   0.09169  -0.0396  0.1256  1.0000  -4.3241   0.0000   0.2261
  21.000   1.5901   0.10323   0.09938  -0.0411  0.1193  1.0000  -4.3514   0.0000   0.2258
  21.500   1.5904   0.10913   0.10538  -0.0427  0.1151  1.0000  -4.4135   0.0000   0.2253
  22.000   1.5751   0.11708   0.11340  -0.0449  0.1100  1.0000  -4.4319   0.0000   0.2254
  22.500   1.5716   0.12354   0.11995  -0.0471  0.1060  1.0000  -4.5253   0.0000   0.2254
  23.000   1.5591   0.13132   0.12781  -0.0500  0.1012  1.0000  -4.6148   0.0000   0.2259
  23.500   1.5484   0.13886   0.13544  -0.0531  0.0967  1.0000  -4.7125   0.0000   0.2266
  24.000   1.5401   0.14614   0.14281  -0.0565  0.0923  1.0000  -4.8190   0.0000   0.2274
  24.500   1.5285   0.15398   0.15071  -0.0604  0.0880  1.0000  -4.9079   0.0000   0.2286
  25.000   1.5278   0.16019   0.15700  -0.0639  0.0839  1.0000  -5.0415   0.0000   0.2293
  25.500   1.5162   0.16807   0.16494  -0.0685  0.0798  1.0000  -5.1238   0.0000   0.2309
  26.000   1.5121   0.17479   0.17175  -0.0727  0.0763  1.0000  -5.2373   0.0000   0.2322
  26.500   1.5014   0.18260   0.17959  -0.0778  0.0723  1.0000  -5.3155   0.0000   0.2341
  27.000   1.5050   0.18810   0.18519  -0.0818  0.0697  1.0000  -5.4619   0.0000   0.2350
  27.500   1.4965   0.19560   0.19274  -0.0872  0.0663  1.0000  -5.5444   0.0000   0.2371
  28.000   1.4979   0.20139   0.19861  -0.0918  0.0633  1.0000  -5.6767   0.0000   0.2382
  28.500   1.4911   0.20859   0.20585  -0.0973  0.0599  1.0000  -5.7623   0.0000   0.2404
  29.000   1.4872   0.21525   0.21260  -0.1028  0.0570  1.0000  -5.8679   0.0000   0.2423
  29.500   1.4868   0.22122   0.21861  -0.1080  0.0539  1.0000  -5.9924   0.0000   0.2439
  30.000   1.4818   0.22797   0.22544  -0.1138  0.0510  1.0000  -6.0853   0.0000   0.2461
  30.500   1.4804   0.23404   0.23155  -0.1193  0.0478  1.0000  -6.1987   0.0000   0.2480
  31.000   1.4748   0.24092   0.23851  -0.1255  0.0446  1.0000  -6.2797   0.0000   0.2504
  31.500   1.4650   0.24859   0.24621  -0.1323  0.0410  1.0000  -6.3267   0.0000   0.2536
  32.000   1.4559   0.25616   0.25383  -0.1392  0.0368  1.0000  -6.3714   0.0000   0.2569
  32.500   1.4471   0.26367   0.26137  -0.1461  0.0321  1.0000  -6.4110   0.0000   0.2601
  33.000   1.4320   0.27258   0.27030  -0.1541  0.0266  1.0000  -6.3890   0.0000   0.2647
  33.500   1.4099   0.28314   0.28086  -0.1632  0.0214  1.0000  -6.2904   0.0000   0.2708
  34.000   1.3935   0.29268   0.29041  -0.1716  0.0163  1.0000  -6.2190   0.0000   0.2762
  34.500   1.3806   0.30153   0.29927  -0.1797  0.0124  1.0000  -6.1636   0.0000   0.2811
  35.000   1.3740   0.30888   0.30663  -0.1868  0.0105  1.0000  -6.1673   0.0000   0.2847
  35.500   1.3710   0.31526   0.31301  -0.1935  0.0094  1.0000  -6.2030   0.0000   0.2875
  36.000   1.3723   0.32040   0.31820  -0.1994  0.0087  1.0000  -6.2819   0.0000   0.2893
  36.500   1.3746   0.32514   0.32297  -0.2051  0.0081  1.0000  -6.3742   0.0000   0.2907
  37.000   1.3787   0.32924   0.32705  -0.2106  0.0076  1.0000  -6.4973   0.0000   0.2916
  37.500   1.3815   0.33359   0.33146  -0.2162  0.0072  1.0000  -6.6064   0.0000   0.2928
  38.000   1.3852   0.33750   0.33542  -0.2217  0.0068  1.0000  -6.7308   0.0000   0.2936
  38.500   1.3892   0.34117   0.33911  -0.2271  0.0065  1.0000  -6.8747   0.0000   0.2942
  39.000   1.3944   0.34430   0.34223  -0.2322  0.0062  1.0000  -7.0394   0.0000   0.2944
  39.500   1.4002   0.34713   0.34509  -0.2373  0.0059  1.0000  -7.2143   0.0000   0.2943
  40.000   1.4015   0.35112   0.34914  -0.2430  0.0057  1.0000  -7.3227   0.0000   0.2953
  40.500   1.4034   0.35478   0.35287  -0.2486  0.0054  1.0000  -7.4451   0.0000   0.2960
  41.000   1.4049   0.35839   0.35652  -0.2542  0.0051  1.0000  -7.5626   0.0000   0.2967
  41.500   1.4078   0.36118   0.35933  -0.2596  0.0049  1.0000  -7.7078   0.0000   0.2970
  42.000   1.4139   0.36279   0.36092  -0.2644  0.0047  1.0000  -7.9122   0.0000   0.2962
  42.500   1.4136   0.36590   0.36411  -0.2702  0.0045  1.0000  -8.0025   0.0000   0.2971
  43.000   1.4090   0.36997   0.36829  -0.2767  0.0042  1.0000  -8.0074   0.0000   0.2991
  43.500   1.4059   0.37340   0.37179  -0.2829  0.0040  1.0000  -8.0401   0.0000   0.3006
  44.000   1.4041   0.37625   0.37469  -0.2889  0.0038  1.0000  -8.0983   0.0000   0.3016
  44.500   1.4047   0.37823   0.37669  -0.2944  0.0036  1.0000  -8.2242   0.0000   0.3018
  45.000   1.4061   0.37981   0.37827  -0.2997  0.0034  1.0000  -8.3772   0.0000   0.3016
  46.000   0.7098   0.47176   0.47097  -0.1780  0.0001  1.0000  -1.0160   0.0000   0.3992
  46.500   0.7070   0.47476   0.47398  -0.1802  0.0001  1.0000  -1.0216   0.0000   0.4006
  47.000   0.7039   0.47686   0.47610  -0.1824  0.0001  1.0000  -1.0594   0.0000   0.4019
  47.500   0.7005   0.47813   0.47738  -0.1846  0.0001  1.0000  -1.1103   0.0000   0.4031
  48.000   0.6969   0.47842   0.47768  -0.1868  0.0000  1.0000  -1.1779   0.0000   0.4041
  48.500   0.6926   0.48444   0.48371  -0.1886  0.0000  1.0000  -1.0970   0.0000   0.4059
  49.000   0.6885   0.49074   0.49003  -0.1902  0.0000  1.0000  -0.9982   0.0000   0.4074
  49.500   0.6842   0.49410   0.49340  -0.1919  0.0000  1.0000  -0.9618   0.0000   0.4087
  50.000   0.6796   0.49576   0.49507  -0.1936  0.0000  1.0000  -0.9599   0.0000   0.4100


