xflr5 v6.33

 Calculated polar for: Bell A821201 v4

 1 1 Reynolds number fixed          Mach number fixed         

 xtrf =   1.000 (top)        1.000 (bottom)
 Mach =   0.000     Re =     2.800 e 6     Ncrit =   9.000

  alpha     CL        CD       CDp       Cm    Top Xtr Bot Xtr   Cpmin    Chinge    XCp    
 ------- -------- --------- --------- -------- ------- ------- -------- --------- ---------
 -24.500  -0.7310   0.17159   0.16974  -0.0415  0.9943  0.0104  -7.9381   0.0000   0.1291
 -24.000  -0.7566   0.15732   0.15529  -0.0515  0.9934  0.0105  -8.3459   0.0000   0.1201
 -23.500  -0.7767   0.14492   0.14273  -0.0599  0.9918  0.0106  -8.6079   0.0000   0.1131
 -23.000  -0.8065   0.13421   0.13189  -0.0642  0.9901  0.0106  -8.8408   0.0000   0.1133
 -22.500  -0.8257   0.12389   0.12142  -0.0697  0.9886  0.0106  -8.9756   0.0000   0.1105
 -22.000  -0.8446   0.11335   0.11074  -0.0758  0.9864  0.0107  -9.0905   0.0000   0.1072
 -21.500  -0.8605   0.10339   0.10063  -0.0815  0.9820  0.0107  -9.1560   0.0000   0.1042
 -21.000  -0.8422   0.09285   0.08944  -0.0936  0.8357  0.0107  -9.0385   0.0000   0.0883
 -20.500  -0.8510   0.08507   0.08128  -0.0976  0.7809  0.0108  -9.0045   0.0000   0.0867
 -20.000  -0.8553   0.07809   0.07412  -0.1008  0.7592  0.0108  -8.9249   0.0000   0.0851
 -19.500  -0.8536   0.07189   0.06754  -0.1039  0.6778  0.0108  -8.7979   0.0000   0.0827
 -19.000  -0.8500   0.06616   0.06159  -0.1064  0.6424  0.0108  -8.6493   0.0000   0.0806
 -18.500  -0.8437   0.06101   0.05629  -0.1083  0.6264  0.0108  -8.4762   0.0000   0.0788
 -18.000  -0.8335   0.05646   0.05159  -0.1097  0.6116  0.0109  -8.2747   0.0000   0.0766
 -17.500  -0.8204   0.05244   0.04747  -0.1107  0.6062  0.0109  -8.0535   0.0000   0.0745
 -17.000  -0.8047   0.04877   0.04370  -0.1114  0.5996  0.0109  -7.8163   0.0000   0.0719
 -16.500  -0.7949   0.04478   0.03958  -0.1118  0.5916  0.0110  -7.6257   0.0000   0.0709
 -16.000  -0.7861   0.04092   0.03561  -0.1118  0.5877  0.0110  -7.4420   0.0000   0.0705
 -15.500  -0.7717   0.03769   0.03229  -0.1115  0.5860  0.0111  -7.2239   0.0000   0.0693
 -15.000  -0.7545   0.03477   0.02930  -0.1111  0.5836  0.0112  -6.9891   0.0000   0.0675
 -14.500  -0.7351   0.03207   0.02652  -0.1106  0.5809  0.0112  -6.7431   0.0000   0.0652
 -14.000  -0.7105   0.02987   0.02425  -0.1100  0.5780  0.0113  -6.4735   0.0000   0.0614
 -13.500  -0.6859   0.02767   0.02197  -0.1095  0.5748  0.0114  -6.2055   0.0000   0.0574
 -13.000  -0.6570   0.02588   0.02012  -0.1088  0.5710  0.0115  -5.9212   0.0000   0.0518
 -12.500  -0.6285   0.02408   0.01827  -0.1082  0.5675  0.0116  -5.6419   0.0000   0.0457
 -12.000  -0.5961   0.02256   0.01670  -0.1076  0.5651  0.0117  -5.3503   0.0000   0.0376
 -11.500  -0.5634   0.02100   0.01512  -0.1071  0.5646  0.0118  -5.0625   0.0000   0.0283
 -11.000  -0.5272   0.01960   0.01370  -0.1068  0.5639  0.0119  -4.7667   0.0000   0.0158
 -10.500  -0.4868   0.01827   0.01235  -0.1071  0.5630  0.0120  -4.4625   0.0000  -0.0020
 -10.000  -0.4390   0.01700   0.01106  -0.1087  0.5619  0.0122  -4.1420   0.0000  -0.0305
  -9.500  -0.3954   0.01580   0.00984  -0.1092  0.5605  0.0124  -3.8420   0.0000  -0.0602
  -9.000  -0.3569   0.01465   0.00868  -0.1086  0.5591  0.0126  -3.5641   0.0000  -0.0893
  -8.500  -0.3209   0.01354   0.00756  -0.1074  0.5577  0.0129  -3.2995   0.0000  -0.1206
  -8.000  -0.2907   0.01243   0.00642  -0.1052  0.5562  0.0132  -3.0663   0.0000  -0.1484
  -7.500  -0.2692   0.01159   0.00555  -0.1004  0.5545  0.0135  -2.8763   0.0000  -0.1593
  -7.000  -0.2470   0.01110   0.00504  -0.0944  0.5524  0.0137  -2.6856   0.0000  -0.1687
  -6.500  -0.2276   0.01074   0.00466  -0.0876  0.5494  0.0147  -2.5192   0.0000  -0.1711
  -6.000  -0.1927   0.01040   0.00432  -0.0837  0.5453  0.0165  -2.3104   0.0000  -0.2231
  -5.500  -0.1559   0.01000   0.00396  -0.0802  0.5422  0.0243  -2.1015   0.0000  -0.3074
  -5.000  -0.1213   0.00942   0.00352  -0.0762  0.5410  0.0516  -1.8980   0.0000  -0.4270
  -4.500  -0.0836   0.00891   0.00316  -0.0728  0.5398  0.0858  -1.6895   0.0000  -0.6823
  -4.000  -0.0478   0.00831   0.00278  -0.0689  0.5377  0.1400  -1.4902   0.0000  -1.2858
  -3.500  -0.0150   0.00760   0.00238  -0.0645  0.5349  0.2217  -1.3033   0.0000  -4.2875
  -2.500   0.0346   0.00580   0.00154  -0.0523  0.5293  0.5007  -0.9771   0.0000   1.8303
  -2.000   0.0863   0.00577   0.00156  -0.0512  0.5250  0.5281  -0.8690   0.0000   0.8624
  -1.500   0.1414   0.00588   0.00164  -0.0508  0.5212  0.5397  -0.9199   0.0000   0.6155
  -1.000   0.1960   0.00583   0.00163  -0.0504  0.5196  0.5494  -0.9710   0.0000   0.5073
  -0.500   0.2505   0.00588   0.00169  -0.0498  0.5159  0.5567  -1.0225   0.0000   0.4459
   0.000   0.3053   0.00593   0.00169  -0.0494  0.5092  0.5586  -1.0768   0.0000   0.4068
   0.500   0.3595   0.00600   0.00171  -0.0490  0.5010  0.5596  -1.1316   0.0000   0.3795
   1.000   0.4158   0.00605   0.00175  -0.0490  0.4960  0.5604  -1.1965   0.0000   0.3598
   1.500   0.4699   0.00616   0.00179  -0.0486  0.4827  0.5621  -1.2622   0.0000   0.3444
   2.000   0.5256   0.00629   0.00184  -0.0487  0.4626  0.5654  -1.3296   0.0000   0.3327
   2.500   0.5787   0.00656   0.00198  -0.0484  0.4337  0.5678  -1.3977   0.0000   0.3227
   3.000   0.6300   0.00693   0.00221  -0.0477  0.4027  0.5696  -1.4665   0.0000   0.3142
   3.500   0.6839   0.00724   0.00243  -0.0477  0.3811  0.5712  -1.5380   0.0000   0.3074
   4.000   0.7391   0.00757   0.00267  -0.0479  0.3619  0.5726  -1.6111   0.0000   0.3018
   4.500   0.7954   0.00791   0.00294  -0.0485  0.3441  0.5739  -1.6858   0.0000   0.2973
   5.000   0.8543   0.00822   0.00319  -0.0497  0.3318  0.5753  -1.7680   0.0000   0.2938
   5.500   0.9161   0.00852   0.00346  -0.0515  0.3199  0.5766  -1.8620   0.0000   0.2912
   6.000   0.9788   0.00891   0.00379  -0.0537  0.3052  0.5777  -1.9578   0.0000   0.2891
   6.500   1.0515   0.00930   0.00412  -0.0581  0.2927  0.5788  -2.0643   0.0000   0.2889
   7.000   1.1133   0.00965   0.00444  -0.0601  0.2822  0.5798  -2.1619   0.0000   0.2869
   7.500   1.1668   0.01009   0.00483  -0.0605  0.2704  0.5807  -2.2524   0.0000   0.2841
   8.000   1.2187   0.01047   0.00520  -0.0606  0.2623  0.5815  -2.3425   0.0000   0.2811
   8.500   1.2640   0.01102   0.00570  -0.0596  0.2501  0.5822  -2.4347   0.0000   0.2777
   9.000   1.3124   0.01143   0.00612  -0.0591  0.2444  0.5827  -2.5423   0.0000   0.2748
   9.500   1.3521   0.01212   0.00677  -0.0574  0.2330  0.5835  -2.6403   0.0000   0.2713
  10.000   1.3965   0.01267   0.00735  -0.0566  0.2271  0.5871  -2.7449   0.0000   0.2684
  10.500   1.4308   0.01362   0.00827  -0.0544  0.2161  0.5911  -2.8375   0.0000   0.2650
  11.000   1.4685   0.01446   0.00916  -0.0529  0.2108  0.5943  -2.9353   0.0000   0.2621
  11.500   1.4948   0.01592   0.01061  -0.0504  0.2009  0.5969  -3.0225   0.0000   0.2587
  12.000   1.5280   0.01722   0.01197  -0.0491  0.1967  0.5992  -3.1196   0.0000   0.2561
  12.500   1.5515   0.01938   0.01414  -0.0475  0.1900  0.6013  -3.2071   0.0000   0.2534
  13.000   1.5753   0.02164   0.01644  -0.0462  0.1836  0.6031  -3.3059   0.0000   0.2510
  13.500   1.5983   0.02402   0.01888  -0.0450  0.1787  0.6046  -3.4077   0.0000   0.2487
  14.000   1.6081   0.02744   0.02230  -0.0433  0.1698  0.6056  -3.4871   0.0000   0.2462
  14.500   1.6266   0.03036   0.02528  -0.0424  0.1648  0.6086  -3.5841   0.0000   0.2441
  15.000   1.6314   0.03435   0.02929  -0.0409  0.1559  0.6143  -3.6605   0.0000   0.2419
  15.500   1.6461   0.03761   0.03263  -0.0401  0.1519  0.6194  -3.7578   0.0000   0.2399
  16.000   1.6521   0.04164   0.03669  -0.0390  0.1461  0.6235  -3.8415   0.0000   0.2378
  16.500   1.6636   0.04531   0.04043  -0.0383  0.1419  0.6271  -3.9374   0.0000   0.2360
  17.500   1.6825   0.05312   0.04834  -0.0372  0.1302  0.6399  -4.1207   0.0000   0.2324
  18.000   1.6932   0.05709   0.05239  -0.0370  0.1259  0.6481  -4.2148   0.0000   0.2308
  19.000   1.7034   0.06623   0.06165  -0.0368  0.1139  0.6705  -4.3773   0.0000   0.2278
  19.500   1.7046   0.07137   0.06685  -0.0370  0.1078  0.6845  -4.4486   0.0000   0.2265
  20.000   1.7121   0.07592   0.07150  -0.0374  0.1045  0.7039  -4.5340   0.0000   0.2253
  20.500   1.7049   0.08225   0.07795  -0.0382  0.0990  0.7322  -4.5877   0.0000   0.2243
  21.000   1.7070   0.08781   0.08371  -0.0394  0.0953  0.7834  -4.6624   0.0000   0.2235
  21.500   1.6759   0.09321   0.08959  -0.0345  0.0912  0.9961  -4.6675   0.0000   0.2196
  22.000   1.7066   0.10109   0.09755  -0.0441  0.0861  1.0000  -4.8718   0.0000   0.2233
  22.500   1.6892   0.10901   0.10553  -0.0459  0.0815  1.0000  -4.9657   0.0000   0.2231
  23.000   1.6825   0.11558   0.11219  -0.0478  0.0781  1.0000  -5.0974   0.0000   0.2227
  23.500   1.6633   0.12392   0.12060  -0.0504  0.0738  1.0000  -5.1787   0.0000   0.2230
  24.000   1.6515   0.13138   0.12815  -0.0532  0.0706  1.0000  -5.2856   0.0000   0.2233
  24.500   1.6322   0.13987   0.13671  -0.0567  0.0666  1.0000  -5.3580   0.0000   0.2242
  25.000   1.6198   0.14753   0.14446  -0.0603  0.0637  1.0000  -5.4550   0.0000   0.2250
  25.500   1.6052   0.15558   0.15260  -0.0644  0.0608  1.0000  -5.5377   0.0000   0.2262
  26.000   1.5915   0.16355   0.16065  -0.0688  0.0580  1.0000  -5.6199   0.0000   0.2276
  26.500   1.5868   0.17011   0.16729  -0.0729  0.0556  1.0000  -5.7407   0.0000   0.2285
  27.000   1.5747   0.17784   0.17506  -0.0778  0.0522  1.0000  -5.8229   0.0000   0.2302
  27.500   1.5679   0.18482   0.18213  -0.0825  0.0501  1.0000  -5.9265   0.0000   0.2316
  28.000   1.5524   0.19322   0.19058  -0.0883  0.0465  1.0000  -5.9837   0.0000   0.2340
  28.500   1.5510   0.19929   0.19671  -0.0931  0.0435  1.0000  -6.1177   0.0000   0.2352
  29.000   1.5390   0.20717   0.20465  -0.0990  0.0403  1.0000  -6.1882   0.0000   0.2377
  29.500   1.5237   0.21566   0.21318  -0.1056  0.0364  1.0000  -6.2328   0.0000   0.2407
  30.000   1.5081   0.22416   0.22172  -0.1124  0.0317  1.0000  -6.2677   0.0000   0.2440
  30.500   1.4894   0.23331   0.23089  -0.1198  0.0262  1.0000  -6.2736   0.0000   0.2479
  31.000   1.4702   0.24273   0.24035  -0.1275  0.0219  1.0000  -6.2639   0.0000   0.2523
  31.500   1.4567   0.25117   0.24881  -0.1348  0.0179  1.0000  -6.2825   0.0000   0.2560
  32.000   1.4407   0.26021   0.25785  -0.1426  0.0129  1.0000  -6.2719   0.0000   0.2604
  32.500   1.4195   0.27049   0.26816  -0.1512  0.0091  1.0000  -6.2055   0.0000   0.2660
  33.000   1.4124   0.27784   0.27556  -0.1581  0.0076  1.0000  -6.2399   0.0000   0.2693
  33.500   1.4073   0.28473   0.28252  -0.1647  0.0070  1.0000  -6.2852   0.0000   0.2723
  34.000   1.4013   0.29178   0.28963  -0.1716  0.0065  1.0000  -6.3152   0.0000   0.2755
  34.500   1.3973   0.29835   0.29626  -0.1782  0.0059  1.0000  -6.3554   0.0000   0.2783
  35.000   1.3987   0.30353   0.30150  -0.1840  0.0058  1.0000  -6.4526   0.0000   0.2800
  35.500   1.3970   0.30938   0.30742  -0.1902  0.0055  1.0000  -6.5200   0.0000   0.2823
  36.000   1.3979   0.31448   0.31256  -0.1961  0.0052  1.0000  -6.6147   0.0000   0.2840
  36.500   1.3940   0.32071   0.31885  -0.2028  0.0049  1.0000  -6.6485   0.0000   0.2867
  37.000   1.3916   0.32654   0.32472  -0.2092  0.0046  1.0000  -6.6924   0.0000   0.2891
  37.500   1.3946   0.33073   0.32897  -0.2147  0.0045  1.0000  -6.8137   0.0000   0.2901
  38.000   1.3975   0.33486   0.33314  -0.2202  0.0043  1.0000  -6.9374   0.0000   0.2910
  38.500   1.3978   0.33952   0.33785  -0.2261  0.0041  1.0000  -7.0378   0.0000   0.2925
  40.500   1.4005   0.35636   0.35482  -0.2492  0.0033  1.0000  -7.4622   0.0000   0.2971
  41.000   1.4028   0.35969   0.35818  -0.2546  0.0032  1.0000  -7.5985   0.0000   0.2975
  41.500   1.4048   0.36284   0.36137  -0.2600  0.0030  1.0000  -7.7338   0.0000   0.2979
  42.000   1.4044   0.36619   0.36476  -0.2658  0.0029  0.9999  -7.8256   0.0000   0.2989
  42.500   1.4059   0.36867   0.36726  -0.2712  0.0028  0.9999  -7.9573   0.0000   0.2992
  43.000   1.4056   0.37132   0.36994  -0.2769  0.0026  0.9999  -8.0536   0.0000   0.3000
  43.500   1.4056   0.37363   0.37226  -0.2826  0.0024  0.9999  -8.1574   0.0000   0.3005
  44.000   1.4073   0.37526   0.37391  -0.2878  0.0023  0.9999  -8.3012   0.0000   0.3004
  44.500   1.4076   0.37715   0.37584  -0.2933  0.0022  0.9999  -8.4197   0.0000   0.3006
  45.000   1.4057   0.37948   0.37823  -0.2991  0.0021  0.9999  -8.4928   0.0000   0.3014
  45.500   1.4053   0.38127   0.38005  -0.3045  0.0020  0.9999  -8.6176   0.0000   0.3015


