xflr5 v6.33

 Calculated polar for: Bell A821201 v4

 1 1 Reynolds number fixed          Mach number fixed         

 xtrf =   1.000 (top)        1.000 (bottom)
 Mach =   0.000     Re =     1.400 e 6     Ncrit =   9.000

  alpha     CL        CD       CDp       Cm    Top Xtr Bot Xtr   Cpmin    Chinge    XCp    
 ------- -------- --------- --------- -------- ------- ------- -------- --------- ---------
 -22.000  -0.7040   0.15192   0.14963  -0.0428  0.9980  0.0131  -6.9876   0.0000   0.1323
 -21.500  -0.7650   0.13112   0.12847  -0.0558  0.9974  0.0131  -7.6773   0.0000   0.1236
 -21.000  -0.7895   0.11640   0.11350  -0.0667  0.9959  0.0131  -7.9417   0.0000   0.1140
 -20.500  -0.7997   0.10432   0.10120  -0.0761  0.9937  0.0132  -8.0438   0.0000   0.1049
 -20.000  -0.8113   0.09469   0.09138  -0.0815  0.9901  0.0132  -8.0821   0.0000   0.1015
 -19.500  -0.8178   0.08584   0.08236  -0.0865  0.9859  0.0133  -8.0676   0.0000   0.0978
 -19.000  -0.8259   0.07886   0.07523  -0.0884  0.9741  0.0134  -8.0214   0.0000   0.0982
 -18.500  -0.7617   0.06927   0.06474  -0.1071  0.7878  0.0135  -7.6947   0.0000   0.0636
 -18.000  -0.7555   0.06401   0.05922  -0.1091  0.7518  0.0135  -7.5543   0.0000   0.0610
 -17.500  -0.7441   0.05941   0.05418  -0.1112  0.6657  0.0136  -7.3804   0.0000   0.0572
 -17.000  -0.7306   0.05520   0.04976  -0.1126  0.6428  0.0137  -7.1889   0.0000   0.0535
 -16.500  -0.7152   0.05139   0.04580  -0.1136  0.6303  0.0137  -6.9838   0.0000   0.0497
 -16.000  -0.6979   0.04788   0.04216  -0.1143  0.6221  0.0137  -6.7671   0.0000   0.0456
 -15.500  -0.6764   0.04485   0.03901  -0.1148  0.6130  0.0138  -6.5291   0.0000   0.0402
 -15.000  -0.6594   0.04173   0.03579  -0.1147  0.6095  0.0139  -6.3272   0.0000   0.0369
 -14.500  -0.6416   0.03878   0.03276  -0.1143  0.6062  0.0140  -6.1231   0.0000   0.0334
 -14.000  -0.6225   0.03597   0.02986  -0.1140  0.6024  0.0141  -5.9086   0.0000   0.0292
 -13.500  -0.5999   0.03344   0.02724  -0.1138  0.5986  0.0142  -5.6771   0.0000   0.0233
 -13.000  -0.5752   0.03108   0.02479  -0.1136  0.5946  0.0143  -5.4362   0.0000   0.0159
 -12.500  -0.5460   0.02897   0.02261  -0.1137  0.5902  0.0145  -5.1787   0.0000   0.0053
 -12.000  -0.5152   0.02701   0.02059  -0.1139  0.5878  0.0146  -4.9166   0.0000  -0.0074
 -11.500  -0.4817   0.02526   0.01880  -0.1140  0.5867  0.0148  -4.6469   0.0000  -0.0233
 -11.000  -0.4434   0.02360   0.01711  -0.1149  0.5852  0.0150  -4.3655   0.0000  -0.0464
 -10.500  -0.4047   0.02210   0.01557  -0.1154  0.5835  0.0153  -4.0876   0.0000  -0.0734
 -10.000  -0.3694   0.02069   0.01414  -0.1150  0.5817  0.0156  -3.8254   0.0000  -0.1004
  -9.500  -0.3350   0.01937   0.01279  -0.1142  0.5797  0.0159  -3.5696   0.0000  -0.1311
  -9.000  -0.3013   0.01815   0.01154  -0.1130  0.5775  0.0164  -3.3206   0.0000  -0.1665
  -8.500  -0.2693   0.01697   0.01032  -0.1113  0.5755  0.0168  -3.0845   0.0000  -0.2062
  -8.000  -0.2432   0.01565   0.00897  -0.1087  0.5733  0.0176  -2.8950   0.0000  -0.2408
  -7.500  -0.2191   0.01441   0.00771  -0.1056  0.5708  0.0188  -2.7182   0.0000  -0.2768
  -7.000  -0.2022   0.01328   0.00652  -0.1010  0.5679  0.0201  -2.5589   0.0000  -0.2940
  -6.000  -0.1787   0.01198   0.00533  -0.0858  0.5643  0.0408  -2.2677   0.0000  -0.2721
  -5.500  -0.1557   0.01126   0.00479  -0.0800  0.5633  0.0767  -2.0905   0.0000  -0.3075
  -5.000  -0.1283   0.01052   0.00427  -0.0750  0.5613  0.1255  -1.9023   0.0000  -0.3814
  -4.500  -0.1043   0.00957   0.00367  -0.0692  0.5579  0.2107  -1.7245   0.0000  -0.4649
  -4.000  -0.0812   0.00852   0.00306  -0.0632  0.5547  0.3272  -1.5522   0.0000  -0.5857
  -3.500  -0.0602   0.00738   0.00252  -0.0566  0.5524  0.4894  -1.3874   0.0000  -0.7563
  -3.000  -0.0095   0.00738   0.00260  -0.0553  0.5490  0.5321  -1.1671   0.0000  -5.9081
  -2.500   0.0482   0.00759   0.00274  -0.0555  0.5429  0.5454  -0.9437   0.0000   1.4517
  -2.000   0.1000   0.00773   0.00290  -0.0542  0.5414  0.5578  -0.8753   0.0000   0.8084
  -1.500   0.1523   0.00780   0.00298  -0.0532  0.5395  0.5674  -0.9248   0.0000   0.6047
  -1.000   0.2055   0.00787   0.00307  -0.0523  0.5369  0.5727  -0.9751   0.0000   0.5050
  -0.500   0.2587   0.00786   0.00303  -0.0516  0.5335  0.5750  -1.0257   0.0000   0.4466
   0.000   0.3093   0.00784   0.00298  -0.0504  0.5292  0.5772  -1.0775   0.0000   0.4077
   0.500   0.3582   0.00793   0.00299  -0.0488  0.5223  0.5798  -1.1290   0.0000   0.3794
   1.000   0.4056   0.00785   0.00291  -0.0469  0.5178  0.5810  -1.1877   0.0000   0.3574
   1.500   0.4561   0.00780   0.00285  -0.0457  0.5119  0.5817  -1.2509   0.0000   0.3409
   2.000   0.5042   0.00783   0.00282  -0.0440  0.5039  0.5824  -1.3128   0.0000   0.3271
   2.500   0.5561   0.00787   0.00285  -0.0432  0.4960  0.5830  -1.3781   0.0000   0.3167
   3.000   0.6055   0.00789   0.00279  -0.0420  0.4813  0.5852  -1.4455   0.0000   0.3076
   3.500   0.6546   0.00803   0.00285  -0.0409  0.4596  0.5874  -1.5132   0.0000   0.2998
   4.000   0.6989   0.00836   0.00306  -0.0389  0.4300  0.5893  -1.5774   0.0000   0.2922
   4.500   0.7430   0.00879   0.00337  -0.0370  0.4037  0.5911  -1.6416   0.0000   0.2856
   5.000   0.7899   0.00920   0.00371  -0.0357  0.3829  0.5929  -1.7089   0.0000   0.2803
   5.500   0.8381   0.00965   0.00408  -0.0349  0.3640  0.5945  -1.7894   0.0000   0.2760
   6.000   0.8889   0.01010   0.00448  -0.0346  0.3484  0.5959  -1.8730   0.0000   0.2727
   6.500   0.9440   0.01050   0.00486  -0.0354  0.3356  0.5974  -1.9614   0.0000   0.2705
   7.000   0.9998   0.01101   0.00532  -0.0365  0.3223  0.5989  -2.0511   0.0000   0.2688
   7.500   1.0567   0.01156   0.00584  -0.0380  0.3096  0.6003  -2.1427   0.0000   0.2676
   8.000   1.1156   0.01209   0.00636  -0.0399  0.2982  0.6018  -2.2372   0.0000   0.2667
   8.500   1.1774   0.01280   0.00704  -0.0429  0.2856  0.6031  -2.3349   0.0000   0.2666
   9.000   1.2301   0.01348   0.00771  -0.0440  0.2757  0.6044  -2.4441   0.0000   0.2651
   9.500   1.2739   0.01435   0.00858  -0.0437  0.2654  0.6053  -2.5447   0.0000   0.2627
  10.000   1.3144   0.01535   0.00958  -0.0430  0.2566  0.6070  -2.6420   0.0000   0.2603
  10.500   1.3530   0.01656   0.01084  -0.0426  0.2481  0.6112  -2.7372   0.0000   0.2581
  11.000   1.3872   0.01803   0.01236  -0.0418  0.2402  0.6146  -2.8272   0.0000   0.2558
  11.500   1.4136   0.02021   0.01458  -0.0409  0.2313  0.6175  -2.9086   0.0000   0.2535
  12.000   1.4401   0.02244   0.01686  -0.0401  0.2240  0.6203  -2.9927   0.0000   0.2513
  12.500   1.4573   0.02538   0.01983  -0.0389  0.2153  0.6229  -3.0647   0.0000   0.2489
  13.000   1.4788   0.02810   0.02261  -0.0381  0.2090  0.6255  -3.1491   0.0000   0.2468
  13.500   1.4870   0.03191   0.02643  -0.0368  0.2005  0.6276  -3.2194   0.0000   0.2446
  14.000   1.5079   0.03466   0.02927  -0.0361  0.1960  0.6294  -3.3144   0.0000   0.2426
  14.500   1.5201   0.03825   0.03292  -0.0353  0.1893  0.6353  -3.3939   0.0000   0.2407
  15.000   1.5352   0.04161   0.03636  -0.0348  0.1831  0.6410  -3.4818   0.0000   0.2389
  15.500   1.5505   0.04503   0.03985  -0.0343  0.1773  0.6462  -3.5744   0.0000   0.2371
  16.000   1.5568   0.04926   0.04411  -0.0336  0.1695  0.6508  -3.6517   0.0000   0.2353
  16.500   1.5760   0.05240   0.04734  -0.0335  0.1644  0.6581  -3.7562   0.0000   0.2337
  17.000   1.5806   0.05703   0.05202  -0.0333  0.1568  0.6676  -3.8340   0.0000   0.2322
  18.500   1.6129   0.06960   0.06490  -0.0339  0.1412  0.7133  -4.1037   0.0000   0.2282
  19.000   1.6200   0.07441   0.06987  -0.0345  0.1358  0.7445  -4.1846   0.0000   0.2271
  19.500   1.6205   0.08019   0.07586  -0.0356  0.1296  0.8033  -4.2489   0.0000   0.2264
  20.000   1.6427   0.08562   0.08171  -0.0391  0.1238  1.0000  -4.3575   0.0000   0.2268
  20.500   1.6357   0.09213   0.08827  -0.0401  0.1180  1.0000  -4.4045   0.0000   0.2260
  21.000   1.6312   0.09841   0.09464  -0.0412  0.1133  1.0000  -4.4591   0.0000   0.2253
  21.500   1.6163   0.10613   0.10242  -0.0429  0.1080  1.0000  -4.4842   0.0000   0.2251
  22.000   1.6125   0.11252   0.10892  -0.0446  0.1046  1.0000  -4.5354   0.0000   0.2247
  22.500   1.5933   0.12096   0.11743  -0.0471  0.0994  1.0000  -4.6066   0.0000   0.2251
  23.000   1.5876   0.12775   0.12432  -0.0496  0.0956  1.0000  -4.7264   0.0000   0.2252
  23.500   1.5721   0.13589   0.13254  -0.0528  0.0909  1.0000  -4.8108   0.0000   0.2259
  24.000   1.5640   0.14306   0.13980  -0.0559  0.0870  1.0000  -4.9209   0.0000   0.2266
  24.500   1.5570   0.15010   0.14690  -0.0594  0.0827  1.0000  -5.0333   0.0000   0.2273
  25.000   1.5472   0.15763   0.15451  -0.0634  0.0789  1.0000  -5.1304   0.0000   0.2285
  25.500   1.5372   0.16521   0.16216  -0.0677  0.0751  1.0000  -5.2234   0.0000   0.2298
  26.000   1.5261   0.17297   0.16999  -0.0723  0.0715  1.0000  -5.3065   0.0000   0.2315
  26.500   1.5262   0.17896   0.17605  -0.0764  0.0684  1.0000  -5.4406   0.0000   0.2324
  27.000   1.5142   0.18696   0.18410  -0.0817  0.0649  1.0000  -5.5118   0.0000   0.2346
  27.500   1.5119   0.19337   0.19061  -0.0864  0.0622  1.0000  -5.6287   0.0000   0.2360
  28.000   1.5030   0.20089   0.19816  -0.0919  0.0587  1.0000  -5.7079   0.0000   0.2381
  28.500   1.5037   0.20675   0.20411  -0.0966  0.0562  1.0000  -5.8389   0.0000   0.2394
  29.000   1.4940   0.21441   0.21182  -0.1026  0.0529  1.0000  -5.9128   0.0000   0.2420
  29.500   1.4973   0.21970   0.21717  -0.1074  0.0502  1.0000  -6.0610   0.0000   0.2430
  30.000   1.4874   0.22729   0.22481  -0.1137  0.0469  1.0000  -6.1259   0.0000   0.2458
  30.500   1.4885   0.23288   0.23046  -0.1189  0.0439  1.0000  -6.2566   0.0000   0.2473
  31.000   1.4796   0.24034   0.23796  -0.1254  0.0404  1.0000  -6.3177   0.0000   0.2501
  31.500   1.4681   0.24828   0.24595  -0.1324  0.0363  1.0000  -6.3546   0.0000   0.2535
  32.000   1.4560   0.25644   0.25415  -0.1396  0.0315  1.0000  -6.3774   0.0000   0.2572
  32.500   1.4394   0.26559   0.26331  -0.1476  0.0260  1.0000  -6.3550   0.0000   0.2618
  33.000   1.4217   0.27511   0.27284  -0.1560  0.0211  1.0000  -6.3080   0.0000   0.2669
  33.500   1.4044   0.28471   0.28244  -0.1644  0.0161  1.0000  -6.2456   0.0000   0.2723
  34.000   1.3892   0.29403   0.29177  -0.1727  0.0118  1.0000  -6.1834   0.0000   0.2775
  34.500   1.3793   0.30217   0.29993  -0.1803  0.0097  1.0000  -6.1550   0.0000   0.2817
  35.000   1.3753   0.30884   0.30665  -0.1870  0.0087  1.0000  -6.1867   0.0000   0.2847
  35.500   1.3741   0.31476   0.31260  -0.1933  0.0080  1.0000  -6.2450   0.0000   0.2871
  36.000   1.3733   0.32040   0.31827  -0.1996  0.0074  1.0000  -6.3013   0.0000   0.2894
  36.500   1.3768   0.32484   0.32277  -0.2051  0.0070  1.0000  -6.4104   0.0000   0.2905
  37.000   1.3780   0.32976   0.32773  -0.2110  0.0067  1.0000  -6.4944   0.0000   0.2921
  37.500   1.3807   0.33410   0.33208  -0.2167  0.0062  1.0000  -6.6066   0.0000   0.2932
  38.000   1.3857   0.33757   0.33555  -0.2219  0.0059  1.0000  -6.7500   0.0000   0.2937
  38.500   1.3882   0.34175   0.33981  -0.2275  0.0057  1.0000  -6.8708   0.0000   0.2947
  39.000   1.3916   0.34544   0.34354  -0.2329  0.0055  1.0000  -7.0081   0.0000   0.2953
  39.500   1.3949   0.34900   0.34713  -0.2383  0.0052  1.0000  -7.1479   0.0000   0.2959
  40.000   1.3971   0.35274   0.35089  -0.2439  0.0049  1.0000  -7.2738   0.0000   0.2966
  40.500   1.4031   0.35513   0.35327  -0.2488  0.0046  1.0000  -7.4624   0.0000   0.2963
  41.000   1.4052   0.35855   0.35674  -0.2543  0.0045  1.0000  -7.5897   0.0000   0.2968
  41.500   1.4063   0.36200   0.36026  -0.2600  0.0043  1.0000  -7.7028   0.0000   0.2975
  42.000   1.4060   0.36540   0.36371  -0.2658  0.0041  1.0000  -7.7927   0.0000   0.2986
  42.500   1.4071   0.36801   0.36636  -0.2714  0.0039  1.0000  -7.9122   0.0000   0.2991
  43.000   1.4083   0.37042   0.36880  -0.2770  0.0037  1.0000  -8.0347   0.0000   0.2994
  43.500   1.4101   0.37236   0.37075  -0.2823  0.0035  1.0000  -8.1731   0.0000   0.2995
  44.000   1.4122   0.37396   0.37237  -0.2876  0.0033  1.0000  -8.3188   0.0000   0.2993
  44.500   1.4085   0.37724   0.37575  -0.2938  0.0032  1.0000  -8.3446   0.0000   0.3008
  45.000   1.4031   0.38077   0.37936  -0.3003  0.0030  1.0000  -8.3435   0.0000   0.3026
  48.000   0.6959   0.48306   0.48240  -0.1860  0.0000  1.0000  -1.0439   0.0000   0.4045
  48.500   0.6920   0.48465   0.48400  -0.1880  0.0000  1.0000  -1.0730   0.0000   0.4058
  49.000   0.6878   0.48557   0.48493  -0.1900  0.0000  1.0000  -1.1110   0.0000   0.4070
  49.500   0.6833   0.48578   0.48515  -0.1920  0.0000  1.0000  -1.1585   0.0000   0.4082
  50.000   0.6786   0.48603   0.48542  -0.1939  0.0000  1.0000  -1.1960   0.0000   0.4094


