xflr5 v6.33

 Calculated polar for: Bell A821201 v4

 1 1 Reynolds number fixed          Mach number fixed         

 xtrf =   1.000 (top)        1.000 (bottom)
 Mach =   0.000     Re =     0.600 e 6     Ncrit =   9.000

  alpha     CL        CD       CDp       Cm    Top Xtr Bot Xtr   Cpmin    Chinge    XCp    
 ------- -------- --------- --------- -------- ------- ------- -------- --------- ---------
 -30.000  -0.3771   0.25724   0.25513   0.0113  1.0000  0.0129  -0.9190   0.0000   0.2343
 -29.500  -0.3710   0.25211   0.24998   0.0086  1.0000  0.0137  -0.9891   0.0000   0.2271
 -29.000  -0.3686   0.24648   0.24435   0.0056  1.0000  0.0138  -1.1365   0.0000   0.2184
 -28.500  -0.3566   0.24310   0.24097   0.0037  1.0000  0.0140  -1.0553   0.0000   0.2140
 -28.000  -0.3465   0.23978   0.23766   0.0016  1.0000  0.0143  -1.0064   0.0000   0.2082
 -27.500  -0.3370   0.23622   0.23410  -0.0007  1.0000  0.0147  -0.9776   0.0000   0.2016
 -27.000  -0.3279   0.23239   0.23027  -0.0029  1.0000  0.0153  -0.9641   0.0000   0.1944
 -26.500  -0.3195   0.22818   0.22606  -0.0052  1.0000  0.0162  -0.9814   0.0000   0.1865
 -26.000  -0.3232   0.22159   0.21945  -0.0090  1.0000  0.0169  -1.2587   0.0000   0.1740
 -25.500  -0.3077   0.21820   0.21608  -0.0102  1.0000  0.0171  -1.1480   0.0000   0.1684
 -25.000  -0.2959   0.21504   0.21293  -0.0120  1.0000  0.0174  -1.0836   0.0000   0.1607
 -24.500  -0.2855   0.21155   0.20945  -0.0139  1.0000  0.0179  -1.0508   0.0000   0.1517
 -24.000  -0.2760   0.20775   0.20566  -0.0160  1.0000  0.0186  -1.0397   0.0000   0.1419
 -23.500  -0.2770   0.20164   0.19954  -0.0193  1.0000  0.0202  -1.2408   0.0000   0.1290
 -23.000  -0.2695   0.19703   0.19494  -0.0213  1.0000  0.0204  -1.2841   0.0000   0.1188
 -22.500  -0.2553   0.19402   0.19196  -0.0226  1.0000  0.0206  -1.1989   0.0000   0.1086
 -22.000  -0.2418   0.19044   0.18839  -0.0249  0.9998  0.0211  -1.1493   0.0000   0.0927
 -21.500  -0.2099   0.18249   0.18041  -0.0340  0.9906  0.0221  -1.1144   0.0000   0.0265
 -21.000  -0.2168   0.17417   0.17208  -0.0390  0.9463  0.0239  -1.4092   0.0000   0.0082
 -20.500  -0.0775   0.15626   0.15342  -0.0796  0.8135  0.0249  -1.1284   0.0000  -0.9447
 -20.000  -0.0604   0.15196   0.14874  -0.0839  0.7588  0.0261  -1.1291   0.0000  -1.3542
 -19.500  -0.3588   0.19716   0.19476  -0.0294  0.9973  0.0247  -1.8722   0.0000   0.0987
 -19.000  -0.3250   0.18861   0.18621  -0.0376  0.9863  0.0256  -1.8180   0.0000   0.0609
 -18.500  -0.3066   0.17209   0.16962  -0.0524  0.9221  0.0280  -2.1659   0.0000   0.0023
 -18.000  -0.2196   0.16159   0.15817  -0.0741  0.7652  0.0286  -1.9333   0.0000  -0.1894
 -17.500  -0.2019   0.15574   0.15205  -0.0778  0.7033  0.0296  -1.8909   0.0000  -0.2422
 -16.500  -0.7517   0.05984   0.05514  -0.0963  0.9281  0.0195  -6.4909   0.0000   0.0827
 -16.000  -0.6530   0.05130   0.04546  -0.1198  0.7729  0.0197  -6.1290   0.0000   0.0243
 -15.500  -0.6336   0.04788   0.04165  -0.1208  0.7126  0.0198  -5.9575   0.0000   0.0178
 -15.000  -0.6098   0.04490   0.03830  -0.1215  0.6765  0.0199  -5.7613   0.0000   0.0095
 -14.500  -0.5795   0.04235   0.03551  -0.1225  0.6618  0.0200  -5.5357   0.0000  -0.0026
 -14.000  -0.5459   0.04003   0.03303  -0.1235  0.6530  0.0202  -5.2951   0.0000  -0.0178
 -13.500  -0.5076   0.03810   0.03098  -0.1242  0.6459  0.0203  -5.0450   0.0000  -0.0371
 -13.000  -0.4666   0.03630   0.02909  -0.1252  0.6394  0.0206  -4.7885   0.0000  -0.0622
 -12.500  -0.4289   0.03436   0.02708  -0.1264  0.6340  0.0210  -4.5354   0.0000  -0.0899
 -12.000  -0.3970   0.03248   0.02518  -0.1264  0.6311  0.0213  -4.2982   0.0000  -0.1146
 -11.500  -0.3639   0.03071   0.02338  -0.1265  0.6278  0.0218  -4.0577   0.0000  -0.1450
 -11.000  -0.3315   0.02899   0.02161  -0.1263  0.6245  0.0225  -3.8242   0.0000  -0.1802
 -10.500  -0.2998   0.02739   0.01995  -0.1259  0.6214  0.0231  -3.6003   0.0000  -0.2210
 -10.000  -0.2685   0.02586   0.01835  -0.1252  0.6183  0.0237  -3.3838   0.0000  -0.2698
  -9.500  -0.2440   0.02408   0.01652  -0.1239  0.6150  0.0247  -3.1939   0.0000  -0.3130
  -9.000  -0.2135   0.02267   0.01507  -0.1229  0.6113  0.0260  -2.9813   0.0000  -0.3846
  -8.500  -0.1882   0.02133   0.01373  -0.1204  0.6098  0.0278  -2.8062   0.0000  -0.4515
  -8.000  -0.1683   0.01988   0.01230  -0.1171  0.6079  0.0310  -2.6587   0.0000  -0.5102
  -7.500  -0.1541   0.01830   0.01078  -0.1129  0.6059  0.0391  -2.5321   0.0000  -0.5473
  -7.000  -0.1569   0.01626   0.00893  -0.1065  0.6037  0.0701  -2.4397   0.0000  -0.4869
  -6.500  -0.1698   0.01457   0.00737  -0.0972  0.6012  0.1036  -2.3533   0.0000  -0.3715
  -6.000  -0.1783   0.01366   0.00668  -0.0864  0.5985  0.1513  -2.2477   0.0000  -0.2775
  -5.500  -0.1731   0.01246   0.00588  -0.0780  0.5962  0.2440  -2.1107   0.0000  -0.2410
  -5.000  -0.1686   0.01091   0.00494  -0.0694  0.5938  0.3943  -1.9750   0.0000  -0.1988
  -4.500  -0.1361   0.01062   0.00505  -0.0649  0.5902  0.5193  -1.7755   0.0000  -0.2678
  -4.000  -0.0840   0.01093   0.00532  -0.0638  0.5867  0.5430  -1.5398   0.0000  -0.5661
  -3.500  -0.0346   0.01134   0.00571  -0.0619  0.5828  0.5619  -1.3161   0.0000  -1.6560
  -3.000   0.0225   0.01194   0.00638  -0.0614  0.5788  0.5767  -1.0861   0.0000   3.1141
  -2.500   0.0788   0.01240   0.00684  -0.0609  0.5751  0.5887  -0.8689   0.0000   1.0527
  -2.000   0.1373   0.01274   0.00716  -0.0609  0.5712  0.5952  -0.8931   0.0000   0.7055
  -1.500   0.1945   0.01308   0.00739  -0.0612  0.5651  0.5997  -0.9451   0.0000   0.5689
  -1.000   0.2443   0.01298   0.00726  -0.0599  0.5623  0.6032  -0.9935   0.0000   0.4951
  -0.500   0.2950   0.01297   0.00721  -0.0587  0.5583  0.6055  -1.0430   0.0000   0.4464
   0.000   0.3434   0.01258   0.00677  -0.0574  0.5539  0.6080  -1.0940   0.0000   0.4124
   0.500   0.3948   0.01233   0.00645  -0.0565  0.5493  0.6101  -1.1480   0.0000   0.3869
   1.000   0.4502   0.01239   0.00643  -0.0565  0.5430  0.6123  -1.2141   0.0000   0.3680
   1.500   0.4951   0.01215   0.00624  -0.0543  0.5384  0.6141  -1.2734   0.0000   0.3509
   2.000   0.5393   0.01188   0.00596  -0.0518  0.5311  0.6157  -1.3331   0.0000   0.3363
   2.500   0.5850   0.01170   0.00571  -0.0497  0.5240  0.6175  -1.3942   0.0000   0.3242
   3.000   0.6276   0.01159   0.00562  -0.0471  0.5167  0.6197  -1.4559   0.0000   0.3133
   3.500   0.6644   0.01138   0.00542  -0.0432  0.5076  0.6213  -1.5143   0.0000   0.3024
   4.000   0.6987   0.01125   0.00526  -0.0388  0.4975  0.6230  -1.5710   0.0000   0.2921
   4.500   0.7321   0.01121   0.00516  -0.0344  0.4831  0.6246  -1.6272   0.0000   0.2827
   5.000   0.7625   0.01137   0.00525  -0.0295  0.4628  0.6261  -1.6810   0.0000   0.2735
   5.500   0.7929   0.01172   0.00551  -0.0249  0.4383  0.6276  -1.7444   0.0000   0.2654
   6.000   0.8217   0.01225   0.00593  -0.0203  0.4156  0.6289  -1.8072   0.0000   0.2578
   6.500   0.8542   0.01282   0.00641  -0.0167  0.3957  0.6305  -1.8731   0.0000   0.2519
   7.000   0.8929   0.01345   0.00699  -0.0148  0.3781  0.6330  -1.9447   0.0000   0.2482
   7.500   0.9319   0.01426   0.00776  -0.0134  0.3615  0.6352  -2.0166   0.0000   0.2451
   8.000   0.9727   0.01522   0.00869  -0.0127  0.3469  0.6373  -2.0901   0.0000   0.2430
   8.500   1.0196   0.01613   0.00964  -0.0133  0.3348  0.6396  -2.1699   0.0000   0.2422
   9.000   1.0626   0.01745   0.01097  -0.0141  0.3228  0.6419  -2.2464   0.0000   0.2415
   9.500   1.1082   0.01887   0.01242  -0.0156  0.3112  0.6444  -2.3436   0.0000   0.2416
  10.000   1.1514   0.02063   0.01423  -0.0175  0.2998  0.6473  -2.4379   0.0000   0.2417
  10.500   1.1892   0.02301   0.01659  -0.0194  0.2877  0.6500  -2.5250   0.0000   0.2419
  11.000   1.2319   0.02496   0.01862  -0.0215  0.2784  0.6522  -2.6196   0.0000   0.2420
  11.500   1.2616   0.02785   0.02151  -0.0229  0.2677  0.6552  -2.6964   0.0000   0.2417
  12.000   1.2980   0.03011   0.02391  -0.0245  0.2597  0.6594  -2.7869   0.0000   0.2413
  12.500   1.3161   0.03341   0.02722  -0.0244  0.2503  0.6632  -2.8531   0.0000   0.2399
  13.000   1.3455   0.03582   0.02977  -0.0248  0.2437  0.6674  -2.9395   0.0000   0.2387
  13.500   1.3621   0.03917   0.03313  -0.0246  0.2352  0.6717  -3.0129   0.0000   0.2371
  14.000   1.3841   0.04211   0.03616  -0.0245  0.2283  0.6757  -3.1015   0.0000   0.2357
  14.500   1.4029   0.04554   0.03966  -0.0249  0.2204  0.6821  -3.1877   0.0000   0.2345
  15.000   1.4219   0.04888   0.04310  -0.0251  0.2128  0.6891  -3.2746   0.0000   0.2332
  15.500   1.4378   0.05253   0.04683  -0.0253  0.2055  0.6968  -3.3605   0.0000   0.2319
  16.000   1.4538   0.05621   0.05059  -0.0255  0.1984  0.7066  -3.4482   0.0000   0.2307
  16.500   1.4710   0.05995   0.05449  -0.0261  0.1920  0.7198  -3.5417   0.0000   0.2296
  17.000   1.4822   0.06421   0.05882  -0.0265  0.1846  0.7388  -3.6232   0.0000   0.2285
  17.500   1.4999   0.06824   0.06313  -0.0277  0.1792  0.7723  -3.7209   0.0000   0.2278
  18.000   1.5162   0.07316   0.06849  -0.0290  0.1724  0.9981  -3.8167   0.0000   0.2272
  18.500   1.5399   0.07859   0.07403  -0.0332  0.1661  1.0000  -3.9225   0.0000   0.2283
  19.000   1.5424   0.08405   0.07955  -0.0340  0.1597  1.0000  -3.9890   0.0000   0.2274
  19.500   1.5451   0.08951   0.08506  -0.0348  0.1539  1.0000  -4.0544   0.0000   0.2265
  20.000   1.5462   0.09525   0.09089  -0.0360  0.1484  1.0000  -4.1150   0.0000   0.2258
  20.500   1.5423   0.10158   0.09724  -0.0373  0.1422  1.0000  -4.1615   0.0000   0.2253
  21.000   1.5403   0.10796   0.10379  -0.0390  0.1371  1.0000  -4.2133   0.0000   0.2250
  21.500   1.5328   0.11488   0.11071  -0.0410  0.1311  1.0000  -4.2518   0.0000   0.2250
  22.000   1.5315   0.12124   0.11724  -0.0432  0.1265  1.0000  -4.3027   0.0000   0.2250
  22.500   1.5249   0.12829   0.12434  -0.0459  0.1211  1.0000  -4.3481   0.0000   0.2253
  23.000   1.5197   0.13517   0.13133  -0.0488  0.1162  1.0000  -4.4591   0.0000   0.2258
  23.500   1.5121   0.14242   0.13865  -0.0521  0.1111  1.0000  -4.5597   0.0000   0.2266
  24.000   1.5080   0.14917   0.14548  -0.0555  0.1064  1.0000  -4.6754   0.0000   0.2273
  24.500   1.5034   0.15608   0.15247  -0.0592  0.1016  1.0000  -4.7897   0.0000   0.2283
  25.000   1.4995   0.16280   0.15923  -0.0631  0.0970  1.0000  -4.9055   0.0000   0.2294
  25.500   1.4933   0.16999   0.16655  -0.0675  0.0929  1.0000  -5.0076   0.0000   0.2308
  26.000   1.4961   0.17558   0.17213  -0.0713  0.0886  1.0000  -5.1506   0.0000   0.2316
  26.500   1.4879   0.18319   0.17992  -0.0764  0.0849  1.0000  -5.2375   0.0000   0.2335
  27.000   1.4888   0.18914   0.18585  -0.0808  0.0810  1.0000  -5.3685   0.0000   0.2347
  27.500   1.4852   0.19593   0.19279  -0.0858  0.0777  1.0000  -5.4723   0.0000   0.2364
  28.000   1.4827   0.20247   0.19939  -0.0909  0.0743  1.0000  -5.5805   0.0000   0.2381
  28.500   1.4839   0.20829   0.20527  -0.0957  0.0710  1.0000  -5.7069   0.0000   0.2395
  29.000   1.4773   0.21556   0.21264  -0.1016  0.0674  1.0000  -5.7919   0.0000   0.2419
  29.500   1.4780   0.22135   0.21846  -0.1067  0.0642  1.0000  -5.9208   0.0000   0.2434
  30.000   1.4714   0.22851   0.22575  -0.1129  0.0609  1.0000  -6.0006   0.0000   0.2460
  30.500   1.4706   0.23453   0.23178  -0.1184  0.0576  1.0000  -6.1151   0.0000   0.2478
  31.000   1.4611   0.24227   0.23965  -0.1252  0.0541  1.0000  -6.1666   0.0000   0.2510
  31.500   1.4567   0.24897   0.24642  -0.1315  0.0507  1.0000  -6.2477   0.0000   0.2535
  32.000   1.4512   0.25587   0.25335  -0.1380  0.0470  1.0000  -6.3178   0.0000   0.2562
  32.500   1.4386   0.26433   0.26193  -0.1456  0.0429  1.0000  -6.3232   0.0000   0.2603
  33.000   1.4280   0.27236   0.27003  -0.1530  0.0385  1.0000  -6.3348   0.0000   0.2641
  33.500   1.4161   0.28071   0.27841  -0.1607  0.0335  1.0000  -6.3242   0.0000   0.2684
  34.000   1.4023   0.28960   0.28727  -0.1688  0.0278  1.0000  -6.2818   0.0000   0.2732
  34.500   1.3873   0.29884   0.29647  -0.1772  0.0220  1.0000  -6.2166   0.0000   0.2785
  35.000   1.3781   0.30680   0.30439  -0.1848  0.0177  1.0000  -6.1930   0.0000   0.2827
  35.500   1.3758   0.31296   0.31052  -0.1914  0.0151  1.0000  -6.2345   0.0000   0.2853
  36.000   1.3768   0.31813   0.31566  -0.1974  0.0134  1.0000  -6.3109   0.0000   0.2871
  36.500   1.3792   0.32289   0.32048  -0.2032  0.0123  1.0000  -6.4008   0.0000   0.2886
  37.000   1.3847   0.32658   0.32413  -0.2084  0.0114  1.0000  -6.5448   0.0000   0.2891
  37.500   1.3889   0.33049   0.32808  -0.2139  0.0107  1.0000  -6.6691   0.0000   0.2899
  38.000   1.3916   0.33463   0.33228  -0.2195  0.0101  1.0000  -6.7770   0.0000   0.2910
  38.500   1.3979   0.33767   0.33530  -0.2246  0.0095  1.0000  -6.9528   0.0000   0.2910
  39.000   1.4034   0.34071   0.33836  -0.2297  0.0090  1.0000  -7.1152   0.0000   0.2911
  39.500   1.4021   0.34566   0.34343  -0.2359  0.0086  1.0000  -7.1745   0.0000   0.2929
  40.000   1.4034   0.34965   0.34748  -0.2417  0.0082  1.0000  -7.2771   0.0000   0.2939
  40.500   1.4082   0.35240   0.35024  -0.2468  0.0078  1.0000  -7.4414   0.0000   0.2939
  41.000   1.4134   0.35477   0.35262  -0.2519  0.0074  1.0000  -7.6137   0.0000   0.2936
  42.000   0.7253   0.43590   0.43471  -0.1599  0.0026  1.0000  -1.1368   0.0000   0.3877
  42.500   0.7250   0.43956   0.43839  -0.1626  0.0024  1.0000  -1.1818   0.0000   0.3890
  43.500   0.7222   0.45313   0.45199  -0.1674  0.0018  1.0000  -1.0824   0.0000   0.3926
  44.000   0.7208   0.45717   0.45605  -0.1699  0.0016  1.0000  -1.0969   0.0000   0.3939
  44.500   0.7193   0.45978   0.45868  -0.1724  0.0015  1.0000  -1.1435   0.0000   0.3951
  45.000   0.7179   0.46098   0.45990  -0.1748  0.0014  1.0000  -1.2246   0.0000   0.3958
  45.500   0.7145   0.47280   0.47173  -0.1767  0.0011  1.0000  -0.9831   0.0000   0.3985
  46.000   0.7119   0.47644   0.47538  -0.1790  0.0009  1.0000  -0.9731   0.0000   0.3998
  46.500   0.7091   0.47884   0.47780  -0.1812  0.0008  1.0000  -0.9915   0.0000   0.4011
  47.000   0.7061   0.48000   0.47898  -0.1835  0.0008  1.0000  -1.0387   0.0000   0.4022
  47.500   0.7025   0.48437   0.48336  -0.1855  0.0007  1.0000  -1.0136   0.0000   0.4037
  48.000   0.6988   0.49127   0.49027  -0.1872  0.0006  1.0000  -0.9207   0.0000   0.4053
  48.500   0.6949   0.49432   0.49334  -0.1891  0.0005  1.0000  -0.9110   0.0000   0.4067
  49.000   0.6907   0.49633   0.49537  -0.1911  0.0004  1.0000  -0.9181   0.0000   0.4079
  49.500   0.6863   0.49756   0.49662  -0.1930  0.0004  1.0000  -0.9358   0.0000   0.4092
  50.000   0.6815   0.49801   0.49708  -0.1948  0.0003  1.0000  -0.9644   0.0000   0.4104


