xflr5 v6.33

 Calculated polar for: Bell A821201 v4

 1 1 Reynolds number fixed          Mach number fixed         

 xtrf =   1.000 (top)        1.000 (bottom)
 Mach =   0.000     Re =     0.500 e 6     Ncrit =   9.000

  alpha     CL        CD       CDp       Cm    Top Xtr Bot Xtr   Cpmin    Chinge    XCp    
 ------- -------- --------- --------- -------- ------- ------- -------- --------- ---------
 -30.000  -0.3787   0.25623   0.25392   0.0110  1.0000  0.0140  -0.9787   0.0000   0.2330
 -29.500  -0.3695   0.25278   0.25046   0.0086  1.0000  0.0144  -0.9371   0.0000   0.2275
 -29.000  -0.3606   0.24906   0.24674   0.0062  1.0000  0.0149  -0.9229   0.0000   0.2215
 -28.500  -0.3520   0.24510   0.24278   0.0038  1.0000  0.0157  -0.9240   0.0000   0.2150
 -28.000  -0.3456   0.24011   0.23778   0.0012  1.0000  0.0167  -0.9980   0.0000   0.2069
 -27.500  -0.3430   0.23468   0.23234  -0.0019  1.0000  0.0169  -1.1186   0.0000   0.1974
 -27.000  -0.3302   0.23127   0.22893  -0.0036  1.0000  0.0171  -1.0390   0.0000   0.1921
 -26.500  -0.3195   0.22790   0.22557  -0.0056  1.0000  0.0175  -0.9986   0.0000   0.1851
 -26.000  -0.3097   0.22426   0.22194  -0.0078  1.0000  0.0180  -0.9819   0.0000   0.1773
 -25.500  -0.3005   0.22035   0.21803  -0.0099  1.0000  0.0189  -0.9839   0.0000   0.1688
 -25.000  -0.3023   0.21431   0.21198  -0.0136  1.0000  0.0202  -1.2010   0.0000   0.1561
 -24.500  -0.2900   0.21027   0.20795  -0.0151  1.0000  0.0204  -1.1549   0.0000   0.1482
 -24.000  -0.2772   0.20708   0.20478  -0.0166  1.0000  0.0207  -1.0817   0.0000   0.1395
 -23.500  -0.2664   0.20365   0.20137  -0.0185  1.0000  0.0213  -1.0411   0.0000   0.1294
 -23.000  -0.2567   0.19987   0.19760  -0.0205  1.0000  0.0221  -1.0379   0.0000   0.1182
 -22.500  -0.2640   0.19352   0.19124  -0.0245  1.0000  0.0238  -1.3168   0.0000   0.1044
 -22.000  -0.2484   0.18981   0.18756  -0.0255  1.0000  0.0240  -1.2371   0.0000   0.0933
 -21.500  -0.2345   0.18682   0.18460  -0.0267  1.0000  0.0245  -1.1579   0.0000   0.0807
 -21.000  -0.2046   0.17998   0.17773  -0.0347  0.9960  0.0254  -1.1102   0.0000   0.0181
 -20.000  -0.0919   0.15589   0.15323  -0.0737  0.8715  0.0285  -1.1533   0.0000  -0.6921
 -19.500  -0.0496   0.14872   0.14538  -0.0861  0.7727  0.0301  -1.1238   0.0000  -1.7448
 -19.000  -0.3688   0.19410   0.19156  -0.0259  0.9997  0.0283  -1.9003   0.0000   0.1142
 -18.500  -0.3184   0.18427   0.18169  -0.0383  0.9898  0.0293  -1.7982   0.0000   0.0574
 -17.500  -0.6778   0.09491   0.09141  -0.0712  1.0000  0.0220  -5.6975   0.0000   0.1005
 -17.000  -0.7565   0.07605   0.07188  -0.0808  0.9994  0.0214  -6.2329   0.0000   0.1032
 -16.500  -0.7575   0.06423   0.05958  -0.0914  0.9908  0.0213  -6.3051   0.0000   0.0906
 -16.000  -0.7300   0.05608   0.05108  -0.1002  0.9166  0.0214  -6.1814   0.0000   0.0744
 -15.500  -0.6253   0.04881   0.04272  -0.1223  0.7701  0.0217  -5.7913   0.0000   0.0125
 -15.000  -0.6004   0.04565   0.03920  -0.1235  0.7179  0.0218  -5.6064   0.0000   0.0028
 -14.500  -0.5709   0.04300   0.03621  -0.1243  0.6858  0.0220  -5.3974   0.0000  -0.0094
 -14.000  -0.5350   0.04064   0.03362  -0.1255  0.6713  0.0222  -5.1637   0.0000  -0.0270
 -13.500  -0.4935   0.03856   0.03133  -0.1273  0.6611  0.0225  -4.9110   0.0000  -0.0514
 -13.000  -0.4547   0.03673   0.02938  -0.1280  0.6540  0.0228  -4.6649   0.0000  -0.0763
 -12.500  -0.4172   0.03503   0.02759  -0.1283  0.6487  0.0231  -4.4231   0.0000  -0.1038
 -12.000  -0.3791   0.03341   0.02585  -0.1288  0.6437  0.0235  -4.1792   0.0000  -0.1378
 -11.500  -0.3423   0.03177   0.02413  -0.1291  0.6391  0.0241  -3.9461   0.0000  -0.1774
 -11.000  -0.3062   0.03003   0.02235  -0.1298  0.6345  0.0249  -3.7124   0.0000  -0.2269
 -10.500  -0.2780   0.02835   0.02067  -0.1288  0.6322  0.0256  -3.5037   0.0000  -0.2684
 -10.000  -0.2495   0.02678   0.01908  -0.1276  0.6295  0.0265  -3.2997   0.0000  -0.3190
  -9.500  -0.2216   0.02527   0.01752  -0.1262  0.6266  0.0276  -3.1017   0.0000  -0.3800
  -9.000  -0.2010   0.02358   0.01584  -0.1238  0.6233  0.0292  -2.9247   0.0000  -0.4286
  -8.500  -0.1752   0.02222   0.01444  -0.1216  0.6205  0.0317  -2.7594   0.0000  -0.5104
  -8.000  -0.1559   0.02071   0.01293  -0.1184  0.6179  0.0365  -2.6223   0.0000  -0.5791
  -7.500  -0.1474   0.01891   0.01125  -0.1139  0.6151  0.0538  -2.5154   0.0000  -0.5902
  -7.000  -0.1504   0.01687   0.00943  -0.1078  0.6119  0.0971  -2.4209   0.0000  -0.5278
  -6.500  -0.1691   0.01509   0.00784  -0.0977  0.6101  0.1358  -2.3464   0.0000  -0.3774
  -6.000  -0.1843   0.01404   0.00708  -0.0858  0.6080  0.1973  -2.2564   0.0000  -0.2577
  -5.500  -0.1856   0.01262   0.00617  -0.0765  0.6059  0.3132  -2.1342   0.0000  -0.2000
  -5.000  -0.1826   0.01129   0.00563  -0.0671  0.6034  0.4841  -1.9995   0.0000  -0.1523
  -4.500  -0.1334   0.01161   0.00596  -0.0654  0.6001  0.5349  -1.7630   0.0000  -0.2819
  -4.000  -0.0802   0.01211   0.00639  -0.0642  0.5963  0.5562  -1.5248   0.0000  -0.6111
  -3.500  -0.0214   0.01295   0.00720  -0.0640  0.5909  0.5731  -1.2827   0.0000  -2.9305
  -3.000   0.0351   0.01378   0.00804  -0.0635  0.5867  0.5878  -1.0558   0.0000   2.1483
  -2.500   0.0939   0.01440   0.00873  -0.0632  0.5832  0.5973  -0.8474   0.0000   0.9488
  -2.000   0.1465   0.01457   0.00884  -0.0624  0.5793  0.6034  -0.8965   0.0000   0.6871
  -1.500   0.1966   0.01438   0.00855  -0.0612  0.5743  0.6080  -0.9449   0.0000   0.5658
  -1.000   0.2515   0.01424   0.00834  -0.0610  0.5697  0.6114  -0.9965   0.0000   0.4926
  -0.500   0.3060   0.01441   0.00845  -0.0609  0.5644  0.6141  -1.0483   0.0000   0.4463
   0.000   0.3539   0.01421   0.00826  -0.0593  0.5607  0.6165  -1.0988   0.0000   0.4129
   0.500   0.4023   0.01402   0.00804  -0.0579  0.5557  0.6187  -1.1514   0.0000   0.3876
   1.000   0.4525   0.01381   0.00776  -0.0568  0.5501  0.6210  -1.2141   0.0000   0.3679
   1.500   0.5056   0.01375   0.00758  -0.0563  0.5441  0.6234  -1.2794   0.0000   0.3527
   2.000   0.5481   0.01351   0.00736  -0.0537  0.5377  0.6252  -1.3374   0.0000   0.3382
   2.500   0.5909   0.01319   0.00701  -0.0510  0.5297  0.6268  -1.3965   0.0000   0.3257
   3.000   0.6377   0.01304   0.00675  -0.0492  0.5222  0.6284  -1.4616   0.0000   0.3156
   3.500   0.6741   0.01285   0.00662  -0.0453  0.5138  0.6294  -1.5196   0.0000   0.3048
   4.000   0.7066   0.01241   0.00613  -0.0407  0.5040  0.6317  -1.5751   0.0000   0.2942
   4.500   0.7372   0.01220   0.00596  -0.0357  0.4917  0.6337  -1.6289   0.0000   0.2842
   5.000   0.7676   0.01217   0.00590  -0.0307  0.4758  0.6355  -1.6828   0.0000   0.2749
   5.500   0.7956   0.01237   0.00604  -0.0255  0.4537  0.6375  -1.7449   0.0000   0.2661
   6.000   0.8213   0.01282   0.00638  -0.0202  0.4304  0.6398  -1.8050   0.0000   0.2577
   6.500   0.8488   0.01342   0.00689  -0.0157  0.4094  0.6418  -1.8663   0.0000   0.2507
   7.000   0.8795   0.01412   0.00752  -0.0121  0.3911  0.6438  -1.9304   0.0000   0.2452
   7.500   0.9127   0.01493   0.00828  -0.0095  0.3748  0.6458  -1.9966   0.0000   0.2409
   8.000   0.9471   0.01591   0.00922  -0.0076  0.3596  0.6479  -2.0636   0.0000   0.2377
   8.500   0.9820   0.01716   0.01041  -0.0064  0.3455  0.6499  -2.1304   0.0000   0.2354
   9.000   1.0246   0.01829   0.01159  -0.0068  0.3339  0.6517  -2.2049   0.0000   0.2346
   9.500   1.0642   0.01991   0.01321  -0.0076  0.3223  0.6535  -2.2912   0.0000   0.2343
  10.000   1.1157   0.02167   0.01503  -0.0114  0.3101  0.6576  -2.3936   0.0000   0.2365
  10.500   1.1596   0.02364   0.01708  -0.0139  0.2985  0.6610  -2.4878   0.0000   0.2374
  11.000   1.1947   0.02620   0.01962  -0.0158  0.2868  0.6642  -2.5708   0.0000   0.2376
  11.500   1.2362   0.02837   0.02192  -0.0182  0.2777  0.6677  -2.6629   0.0000   0.2381
  12.000   1.2630   0.03125   0.02479  -0.0191  0.2675  0.6712  -2.7382   0.0000   0.2374
  12.500   1.2935   0.03376   0.02742  -0.0200  0.2596  0.6746  -2.8216   0.0000   0.2367
  13.000   1.3159   0.03677   0.03040  -0.0203  0.2505  0.6785  -2.8958   0.0000   0.2355
  13.500   1.3454   0.03951   0.03334  -0.0215  0.2435  0.6841  -2.9862   0.0000   0.2350
  14.000   1.3644   0.04284   0.03669  -0.0217  0.2351  0.6897  -3.0680   0.0000   0.2337
  14.500   1.3879   0.04577   0.03975  -0.0220  0.2280  0.6960  -3.1619   0.0000   0.2326
  15.000   1.4048   0.04937   0.04340  -0.0224  0.2200  0.7030  -3.2446   0.0000   0.2314
  15.500   1.4243   0.05282   0.04699  -0.0229  0.2124  0.7126  -3.3351   0.0000   0.2304
  16.500   1.4575   0.06031   0.05469  -0.0240  0.1981  0.7406  -3.5140   0.0000   0.2283
  17.000   1.4738   0.06438   0.05898  -0.0250  0.1916  0.7668  -3.6044   0.0000   0.2275
  17.500   1.4913   0.06855   0.06341  -0.0266  0.1843  0.8383  -3.6993   0.0000   0.2271
  18.000   1.5224   0.07418   0.06939  -0.0312  0.1779  1.0000  -3.8192   0.0000   0.2285
  18.500   1.5262   0.07935   0.07455  -0.0317  0.1714  1.0000  -3.8893   0.0000   0.2275
  19.000   1.5336   0.08430   0.07963  -0.0325  0.1657  1.0000  -3.9653   0.0000   0.2265
  19.500   1.5351   0.08998   0.08537  -0.0335  0.1593  1.0000  -4.0277   0.0000   0.2258
  20.000   1.5359   0.09572   0.09118  -0.0347  0.1536  1.0000  -4.0863   0.0000   0.2251
  20.500   1.5346   0.10188   0.09745  -0.0361  0.1481  1.0000  -4.1383   0.0000   0.2247
  21.000   1.5373   0.10738   0.10294  -0.0375  0.1421  1.0000  -4.2018   0.0000   0.2241
  21.500   1.5301   0.11451   0.11027  -0.0398  0.1368  1.0000  -4.2394   0.0000   0.2242
  22.000   1.5280   0.12074   0.11648  -0.0419  0.1310  1.0000  -4.2897   0.0000   0.2241
  22.500   1.5202   0.12812   0.12407  -0.0447  0.1263  1.0000  -4.3274   0.0000   0.2246
  23.000   1.5150   0.13501   0.13099  -0.0477  0.1210  1.0000  -4.4386   0.0000   0.2251
  23.500   1.5106   0.14180   0.13791  -0.0508  0.1161  1.0000  -4.5504   0.0000   0.2257
  24.000   1.5054   0.14880   0.14497  -0.0544  0.1110  1.0000  -4.6600   0.0000   0.2266
  24.500   1.5019   0.15548   0.15173  -0.0580  0.1062  1.0000  -4.7785   0.0000   0.2275
  25.000   1.4945   0.16289   0.15923  -0.0623  0.1014  1.0000  -4.8780   0.0000   0.2289
  25.500   1.4970   0.16853   0.16489  -0.0659  0.0970  1.0000  -5.0203   0.0000   0.2296
  26.000   1.4877   0.17629   0.17282  -0.0709  0.0929  1.0000  -5.1042   0.0000   0.2315
  26.500   1.4976   0.18066   0.17713  -0.0742  0.0888  1.0000  -5.2811   0.0000   0.2317
  27.000   1.4830   0.18944   0.18614  -0.0802  0.0850  1.0000  -5.3310   0.0000   0.2345
  27.500   1.4850   0.19519   0.19189  -0.0847  0.0814  1.0000  -5.4658   0.0000   0.2357
  28.000   1.4800   0.20221   0.19905  -0.0901  0.0780  1.0000  -5.5586   0.0000   0.2377
  28.500   1.4769   0.20889   0.20581  -0.0955  0.0744  1.0000  -5.6602   0.0000   0.2396
  29.000   1.4742   0.21540   0.21238  -0.1009  0.0709  1.0000  -5.7651   0.0000   0.2415
  29.500   1.4673   0.22271   0.21980  -0.1071  0.0673  1.0000  -5.8452   0.0000   0.2441
  30.000   1.4694   0.22820   0.22532  -0.1122  0.0641  1.0000  -5.9793   0.0000   0.2455
  30.500   1.4567   0.23665   0.23391  -0.1193  0.0605  1.0000  -6.0116   0.0000   0.2492
  31.000   1.4581   0.24223   0.23953  -0.1247  0.0572  1.0000  -6.1361   0.0000   0.2508
  31.500   1.4480   0.25019   0.24757  -0.1318  0.0534  1.0000  -6.1750   0.0000   0.2543
  32.000   1.4332   0.25914   0.25666  -0.1396  0.0493  1.0000  -6.1680   0.0000   0.2587
  32.500   1.4302   0.26559   0.26313  -0.1460  0.0455  1.0000  -6.2463   0.0000   0.2612
  33.000   1.4280   0.27184   0.26938  -0.1523  0.0414  1.0000  -6.3269   0.0000   0.2636
  33.500   1.4126   0.28104   0.27865  -0.1606  0.0364  1.0000  -6.2846   0.0000   0.2686
  34.000   1.3929   0.29143   0.28912  -0.1696  0.0304  1.0000  -6.1807   0.0000   0.2747
  34.500   1.3863   0.29869   0.29627  -0.1768  0.0249  1.0000  -6.1977   0.0000   0.2782
  35.000   1.3774   0.30659   0.30414  -0.1844  0.0201  1.0000  -6.1743   0.0000   0.2823
  35.500   1.3757   0.31260   0.31012  -0.1908  0.0172  1.0000  -6.2191   0.0000   0.2849
  36.000   1.3794   0.31706   0.31453  -0.1964  0.0154  1.0000  -6.3253   0.0000   0.2861
  36.500   1.3806   0.32208   0.31959  -0.2024  0.0140  1.0000  -6.4051   0.0000   0.2878
  37.000   1.3871   0.32545   0.32294  -0.2075  0.0130  1.0000  -6.5572   0.0000   0.2881
  37.500   1.3889   0.33012   0.32767  -0.2134  0.0121  1.0000  -6.6466   0.0000   0.2895
  38.000   1.3963   0.33294   0.33047  -0.2183  0.0114  1.0000  -6.8227   0.0000   0.2894
  38.500   1.3978   0.33731   0.33491  -0.2241  0.0108  1.0000  -6.9217   0.0000   0.2906
  39.000   1.3960   0.34256   0.34026  -0.2305  0.0101  1.0000  -6.9713   0.0000   0.2927
  39.500   1.4001   0.34586   0.34358  -0.2358  0.0096  1.0000  -7.1143   0.0000   0.2931
  40.000   1.4122   0.34652   0.34418  -0.2398  0.0092  1.0000  -7.3869   0.0000   0.2912
  41.500   0.7263   0.43168   0.43037  -0.1576  0.0038  1.0000  -1.1203   0.0000   0.3863
  42.000   0.7264   0.43556   0.43427  -0.1603  0.0035  1.0000  -1.1647   0.0000   0.3876
  43.000   0.7241   0.44932   0.44806  -0.1652  0.0027  1.0000  -1.0765   0.0000   0.3912
  43.500   0.7231   0.45303   0.45179  -0.1678  0.0024  1.0000  -1.1063   0.0000   0.3925
  44.000   0.7221   0.45524   0.45402  -0.1703  0.0023  1.0000  -1.1712   0.0000   0.3935
  44.500   0.7195   0.46422   0.46302  -0.1725  0.0022  1.0000  -1.0413   0.0000   0.3957
  45.000   0.7174   0.46956   0.46837  -0.1748  0.0018  1.0000  -1.0013   0.0000   0.3972
  45.500   0.7152   0.47285   0.47168  -0.1771  0.0016  1.0000  -1.0102   0.0000   0.3985
  46.000   0.7128   0.47474   0.47359  -0.1794  0.0015  1.0000  -1.0515   0.0000   0.3997
  46.500   0.7098   0.47846   0.47732  -0.1816  0.0014  1.0000  -1.0334   0.0000   0.4010
  47.000   0.7064   0.48631   0.48520  -0.1835  0.0012  1.0000  -0.9080   0.0000   0.4028
  47.500   0.7031   0.48959   0.48849  -0.1855  0.0010  1.0000  -0.9081   0.0000   0.4042
  48.000   0.6994   0.49193   0.49085  -0.1876  0.0009  1.0000  -0.9225   0.0000   0.4054
  48.500   0.6955   0.49335   0.49228  -0.1896  0.0008  1.0000  -0.9512   0.0000   0.4067
  49.000   0.6914   0.49366   0.49261  -0.1916  0.0008  1.0000  -1.0000   0.0000   0.4077
  49.500   0.6868   0.49704   0.49600  -0.1934  0.0007  1.0000  -0.9681   0.0000   0.4092
  50.000   0.6821   0.50171   0.50069  -0.1950  0.0007  1.0000  -0.8931   0.0000   0.4107


