xflr5 v6.33

 Calculated polar for: Bell A821201 v4

 1 1 Reynolds number fixed          Mach number fixed         

 xtrf =   1.000 (top)        1.000 (bottom)
 Mach =   0.000     Re =     1.200 e 6     Ncrit =   9.000

  alpha     CL        CD       CDp       Cm    Top Xtr Bot Xtr   Cpmin    Chinge    XCp    
 ------- -------- --------- --------- -------- ------- ------- -------- --------- ---------
 -28.500  -0.3579   0.24402   0.24252   0.0052  1.0000  0.0093  -1.0097   0.0000   0.2187
 -28.000  -0.3496   0.24004   0.23855   0.0029  1.0000  0.0100  -1.0109   0.0000   0.2124
 -27.500  -0.3475   0.23339   0.23188   0.0001  1.0000  0.0109  -1.2084   0.0000   0.2032
 -27.000  -0.3430   0.22823   0.22672  -0.0025  1.0000  0.0109  -1.3263   0.0000   0.1950
 -26.500  -0.5914   0.27391   0.27208   0.0254  1.0000  0.0111  -2.1925   0.0000   0.2229
 -26.000  -0.5756   0.27027   0.26845   0.0226  1.0000  0.0112  -2.0924   0.0000   0.2200
 -25.500  -0.5600   0.26642   0.26461   0.0196  1.0000  0.0114  -2.0058   0.0000   0.2165
 -25.000  -0.5446   0.26234   0.26054   0.0165  1.0000  0.0116  -1.9309   0.0000   0.2125
 -24.500  -0.5295   0.25779   0.25600   0.0134  1.0000  0.0121  -1.8830   0.0000   0.2080
 -24.000  -0.5151   0.25260   0.25082   0.0101  1.0000  0.0129  -1.8687   0.0000   0.2029
 -21.000  -0.7411   0.13006   0.12733  -0.0543  0.9984  0.0138  -7.2504   0.0000   0.1240
 -20.500  -0.7724   0.11361   0.11057  -0.0666  0.9969  0.0137  -7.5833   0.0000   0.1133
 -20.000  -0.7834   0.10068   0.09739  -0.0772  0.9945  0.0138  -7.6984   0.0000   0.1027
 -19.500  -0.7931   0.09045   0.08695  -0.0838  0.9904  0.0138  -7.7309   0.0000   0.0973
 -18.500  -0.8205   0.07373   0.06981  -0.0900  0.9736  0.0140  -7.8059   0.0000   0.0970
 -18.000  -0.7509   0.06439   0.05954  -0.1093  0.7867  0.0142  -7.4982   0.0000   0.0598
 -17.500  -0.7420   0.05976   0.05464  -0.1108  0.7429  0.0143  -7.3452   0.0000   0.0572
 -17.000  -0.7286   0.05561   0.05007  -0.1123  0.6634  0.0144  -7.1622   0.0000   0.0533
 -16.500  -0.7141   0.05172   0.04600  -0.1133  0.6439  0.0145  -6.9672   0.0000   0.0497
 -16.000  -0.6975   0.04816   0.04231  -0.1140  0.6320  0.0146  -6.7572   0.0000   0.0458
 -15.500  -0.6781   0.04501   0.03905  -0.1144  0.6250  0.0147  -6.5321   0.0000   0.0413
 -15.000  -0.6579   0.04198   0.03591  -0.1148  0.6180  0.0148  -6.3035   0.0000   0.0363
 -14.500  -0.6337   0.03934   0.03316  -0.1150  0.6112  0.0150  -6.0580   0.0000   0.0297
 -14.000  -0.6110   0.03673   0.03049  -0.1149  0.6086  0.0151  -5.8198   0.0000   0.0237
 -13.500  -0.5846   0.03443   0.02813  -0.1148  0.6056  0.0152  -5.5682   0.0000   0.0158
 -13.000  -0.5580   0.03215   0.02578  -0.1148  0.6024  0.0153  -5.3196   0.0000   0.0068
 -12.500  -0.5274   0.03016   0.02372  -0.1148  0.5992  0.0155  -5.0588   0.0000  -0.0052
 -12.000  -0.4951   0.02817   0.02166  -0.1153  0.5958  0.0157  -4.7971   0.0000  -0.0205
 -11.500  -0.4559   0.02642   0.01982  -0.1166  0.5918  0.0159  -4.5166   0.0000  -0.0443
 -11.000  -0.4137   0.02473   0.01806  -0.1185  0.5882  0.0161  -4.2327   0.0000  -0.0761
 -10.500  -0.3804   0.02320   0.01650  -0.1180  0.5873  0.0163  -3.9792   0.0000  -0.1007
 -10.000  -0.3473   0.02174   0.01501  -0.1174  0.5861  0.0166  -3.7295   0.0000  -0.1294
  -9.500  -0.3128   0.02048   0.01373  -0.1164  0.5845  0.0169  -3.4769   0.0000  -0.1651
  -9.000  -0.2871   0.01892   0.01213  -0.1145  0.5825  0.0175  -3.2678   0.0000  -0.1922
  -8.500  -0.2592   0.01758   0.01078  -0.1123  0.5807  0.0183  -3.0483   0.0000  -0.2281
  -8.000  -0.2312   0.01637   0.00955  -0.1099  0.5789  0.0192  -2.8520   0.0000  -0.2716
  -7.500  -0.2053   0.01519   0.00834  -0.1069  0.5771  0.0204  -2.6745   0.0000  -0.3188
  -7.000  -0.1922   0.01378   0.00692  -0.1021  0.5752  0.0229  -2.5315   0.0000  -0.3280
  -6.500  -0.1834   0.01289   0.00604  -0.0947  0.5729  0.0298  -2.3959   0.0000  -0.3114
  -6.000  -0.1803   0.01222   0.00548  -0.0854  0.5699  0.0556  -2.2686   0.0000  -0.2653
  -5.500  -0.1552   0.01158   0.00501  -0.0802  0.5667  0.0951  -2.0864   0.0000  -0.3107
  -5.000  -0.1291   0.01081   0.00450  -0.0751  0.5645  0.1556  -1.9018   0.0000  -0.3785
  -4.500  -0.1081   0.00973   0.00384  -0.0688  0.5624  0.2541  -1.7308   0.0000  -0.4358
  -4.000  -0.0918   0.00840   0.00308  -0.0616  0.5594  0.4015  -1.5727   0.0000  -0.4718
  -3.500  -0.0570   0.00781   0.00288  -0.0574  0.5567  0.5162  -1.3781   0.0000  -0.8264
  -3.000  -0.0032   0.00792   0.00296  -0.0566  0.5541  0.5393  -1.1523   0.0000  -18.5338
  -2.500   0.0485   0.00801   0.00306  -0.0554  0.5504  0.5525  -0.9404   0.0000   1.4434
  -2.000   0.1025   0.00831   0.00329  -0.0547  0.5456  0.5638  -0.8764   0.0000   0.7996
  -1.500   0.1592   0.00860   0.00363  -0.0545  0.5420  0.5740  -0.9282   0.0000   0.5979
  -1.000   0.2120   0.00860   0.00362  -0.0537  0.5402  0.5773  -0.9783   0.0000   0.5035
  -0.500   0.2644   0.00858   0.00358  -0.0528  0.5373  0.5795  -1.0285   0.0000   0.4468
   0.000   0.3157   0.00858   0.00355  -0.0517  0.5333  0.5815  -1.0809   0.0000   0.4086
   0.500   0.3657   0.00858   0.00350  -0.0503  0.5286  0.5827  -1.1333   0.0000   0.3808
   1.000   0.4141   0.00852   0.00336  -0.0488  0.5211  0.5844  -1.1931   0.0000   0.3597
   1.500   0.4595   0.00830   0.00315  -0.0465  0.5164  0.5866  -1.2527   0.0000   0.3421
   2.000   0.5084   0.00820   0.00305  -0.0450  0.5097  0.5887  -1.3152   0.0000   0.3285
   2.500   0.5548   0.00822   0.00302  -0.0431  0.5009  0.5904  -1.3763   0.0000   0.3167
   3.000   0.6066   0.00822   0.00303  -0.0423  0.4910  0.5919  -1.4454   0.0000   0.3079
   3.500   0.6533   0.00834   0.00309  -0.0406  0.4742  0.5933  -1.5113   0.0000   0.2995
   4.000   0.6950   0.00861   0.00325  -0.0379  0.4479  0.5947  -1.5736   0.0000   0.2911
   4.500   0.7361   0.00902   0.00353  -0.0354  0.4203  0.5962  -1.6355   0.0000   0.2838
   5.000   0.7795   0.00945   0.00386  -0.0334  0.3973  0.5979  -1.6994   0.0000   0.2778
   5.500   0.8239   0.00991   0.00425  -0.0317  0.3778  0.5995  -1.7762   0.0000   0.2728
   6.000   0.8703   0.01040   0.00466  -0.0306  0.3602  0.6009  -1.8554   0.0000   0.2688
   6.500   0.9188   0.01093   0.00514  -0.0302  0.3442  0.6021  -1.9371   0.0000   0.2657
   7.000   0.9715   0.01141   0.00559  -0.0306  0.3317  0.6033  -2.0237   0.0000   0.2637
   7.500   1.0253   0.01195   0.00611  -0.0315  0.3198  0.6044  -2.1118   0.0000   0.2622
   8.500   1.1329   0.01329   0.00741  -0.0339  0.2958  0.6060  -2.2900   0.0000   0.2599
   9.000   1.2038   0.01408   0.00819  -0.0392  0.2837  0.6092  -2.4130   0.0000   0.2618
   9.500   1.2542   0.01505   0.00916  -0.0406  0.2723  0.6125  -2.5201   0.0000   0.2607
  10.000   1.2970   0.01607   0.01024  -0.0406  0.2635  0.6157  -2.6195   0.0000   0.2587
  10.500   1.3301   0.01760   0.01178  -0.0396  0.2542  0.6184  -2.7070   0.0000   0.2562
  11.000   1.3634   0.01927   0.01352  -0.0391  0.2467  0.6208  -2.7949   0.0000   0.2541
  11.500   1.3904   0.02151   0.01579  -0.0384  0.2383  0.6232  -2.8757   0.0000   0.2520
  12.000   1.4138   0.02401   0.01833  -0.0375  0.2303  0.6255  -2.9545   0.0000   0.2498
  12.500   1.4349   0.02673   0.02109  -0.0366  0.2227  0.6276  -3.0310   0.0000   0.2476
  13.000   1.4492   0.03006   0.02446  -0.0356  0.2147  0.6292  -3.1014   0.0000   0.2455
  13.500   1.4692   0.03303   0.02751  -0.0352  0.2079  0.6338  -3.1895   0.0000   0.2437
  14.000   1.4773   0.03691   0.03143  -0.0341  0.1997  0.6388  -3.2609   0.0000   0.2416
  14.500   1.4989   0.03978   0.03440  -0.0338  0.1950  0.6435  -3.3562   0.0000   0.2399
  15.000   1.5082   0.04366   0.03832  -0.0331  0.1879  0.6479  -3.4322   0.0000   0.2380
  15.500   1.5258   0.04685   0.04158  -0.0327  0.1822  0.6519  -3.5269   0.0000   0.2363
  16.000   1.5397   0.05053   0.04534  -0.0325  0.1758  0.6592  -3.6180   0.0000   0.2347
  16.500   1.5521   0.05435   0.04922  -0.0323  0.1688  0.6678  -3.7066   0.0000   0.2331
  17.000   1.5658   0.05817   0.05313  -0.0323  0.1633  0.6759  -3.8022   0.0000   0.2317
  17.500   1.5714   0.06283   0.05785  -0.0323  0.1558  0.6894  -3.8806   0.0000   0.2303
  18.000   1.5856   0.06677   0.06194  -0.0327  0.1514  0.7066  -3.9769   0.0000   0.2291
  18.500   1.5861   0.07226   0.06753  -0.0332  0.1451  0.7312  -4.0427   0.0000   0.2280
  19.000   1.6003   0.07642   0.07192  -0.0342  0.1403  0.7784  -4.1379   0.0000   0.2270
  19.500   1.6003   0.08165   0.07762  -0.0335  0.1347  0.9981  -4.2040   0.0000   0.2252
  20.000   1.6172   0.08844   0.08450  -0.0388  0.1284  1.0000  -4.2951   0.0000   0.2269
  20.500   1.6148   0.09447   0.09059  -0.0398  0.1228  1.0000  -4.3510   0.0000   0.2261
  21.000   1.6071   0.10123   0.09742  -0.0411  0.1174  1.0000  -4.3958   0.0000   0.2256
  21.500   1.6023   0.10772   0.10399  -0.0427  0.1127  1.0000  -4.4458   0.0000   0.2251
  22.000   1.5868   0.11565   0.11199  -0.0448  0.1078  1.0000  -4.4647   0.0000   0.2252
  22.500   1.5825   0.12220   0.11865  -0.0470  0.1039  1.0000  -4.5660   0.0000   0.2252
  23.000   1.5617   0.13109   0.12759  -0.0501  0.0984  1.0000  -4.6254   0.0000   0.2260
  23.500   1.5596   0.13743   0.13405  -0.0529  0.0949  1.0000  -4.7586   0.0000   0.2262
  24.000   1.5434   0.14580   0.14248  -0.0566  0.0900  1.0000  -4.8340   0.0000   0.2274
  24.500   1.5400   0.15241   0.14918  -0.0600  0.0863  1.0000  -4.9585   0.0000   0.2281
  25.000   1.5315   0.15978   0.15660  -0.0640  0.0819  1.0000  -5.0593   0.0000   0.2292
  25.500   1.5256   0.16677   0.16369  -0.0681  0.0783  1.0000  -5.1679   0.0000   0.2304
  26.000   1.5155   0.17440   0.17138  -0.0727  0.0745  1.0000  -5.2548   0.0000   0.2321
  26.500   1.5118   0.18106   0.17811  -0.0772  0.0712  1.0000  -5.3682   0.0000   0.2334
  27.000   1.5093   0.18752   0.18464  -0.0817  0.0681  1.0000  -5.4854   0.0000   0.2347
  27.500   1.4999   0.19516   0.19233  -0.0871  0.0647  1.0000  -5.5635   0.0000   0.2369
  28.000   1.5022   0.20080   0.19805  -0.0916  0.0618  1.0000  -5.7014   0.0000   0.2379
  28.500   1.4920   0.20856   0.20584  -0.0975  0.0583  1.0000  -5.7693   0.0000   0.2405
  29.000   1.4913   0.21468   0.21207  -0.1026  0.0556  1.0000  -5.8935   0.0000   0.2420
  29.500   1.4870   0.22134   0.21874  -0.1082  0.0523  1.0000  -5.9950   0.0000   0.2441
  30.000   1.4855   0.22744   0.22494  -0.1136  0.0497  1.0000  -6.1105   0.0000   0.2458
  30.500   1.4796   0.23434   0.23187  -0.1196  0.0463  1.0000  -6.1948   0.0000   0.2482
  31.000   1.4766   0.24070   0.23830  -0.1254  0.0431  1.0000  -6.2941   0.0000   0.2503
  31.500   1.4681   0.24809   0.24575  -0.1321  0.0395  1.0000  -6.3506   0.0000   0.2533
  32.000   1.4580   0.25585   0.25355  -0.1391  0.0352  1.0000  -6.3888   0.0000   0.2567
  32.500   1.4459   0.26404   0.26175  -0.1464  0.0300  1.0000  -6.4031   0.0000   0.2605
  33.000   1.4253   0.27414   0.27186  -0.1552  0.0246  1.0000  -6.3350   0.0000   0.2661
  33.500   1.4090   0.28347   0.28120  -0.1635  0.0195  1.0000  -6.2840   0.0000   0.2711
  34.000   1.3923   0.29308   0.29083  -0.1720  0.0146  1.0000  -6.2090   0.0000   0.2766
  34.500   1.3786   0.30213   0.29987  -0.1801  0.0113  1.0000  -6.1451   0.0000   0.2817
  35.000   1.3734   0.30913   0.30689  -0.1871  0.0098  1.0000  -6.1633   0.0000   0.2850
  35.500   1.3728   0.31489   0.31269  -0.1933  0.0089  1.0000  -6.2254   0.0000   0.2872
  36.000   1.3726   0.32044   0.31827  -0.1995  0.0082  1.0000  -6.2884   0.0000   0.2894
  36.500   1.3745   0.32529   0.32312  -0.2053  0.0076  1.0000  -6.3757   0.0000   0.2909
  37.000   1.3779   0.32960   0.32748  -0.2108  0.0072  1.0000  -6.4885   0.0000   0.2919
  37.500   1.3809   0.33384   0.33177  -0.2164  0.0069  1.0000  -6.6027   0.0000   0.2930
  38.000   1.3846   0.33780   0.33575  -0.2219  0.0065  1.0000  -6.7278   0.0000   0.2938
  38.500   1.3898   0.34110   0.33905  -0.2271  0.0061  1.0000  -6.8885   0.0000   0.2941
  39.000   1.3947   0.34436   0.34233  -0.2323  0.0059  1.0000  -7.0469   0.0000   0.2944
  39.500   1.3969   0.34821   0.34625  -0.2379  0.0057  1.0000  -7.1678   0.0000   0.2952
  40.000   1.3996   0.35182   0.34991  -0.2434  0.0054  1.0000  -7.2997   0.0000   0.2959
  40.500   1.4015   0.35549   0.35362  -0.2490  0.0051  1.0000  -7.4220   0.0000   0.2966
  41.000   1.4046   0.35856   0.35671  -0.2543  0.0049  1.0000  -7.5680   0.0000   0.2969
  41.500   1.4113   0.36027   0.35839  -0.2590  0.0046  1.0000  -7.7792   0.0000   0.2960
  42.000   1.4114   0.36360   0.36180  -0.2648  0.0045  1.0000  -7.8759   0.0000   0.2969
  42.500   1.4090   0.36733   0.36562  -0.2710  0.0042  1.0000  -7.9258   0.0000   0.2984
  43.000   1.4082   0.37024   0.36859  -0.2769  0.0040  1.0000  -8.0074   0.0000   0.2994
  43.500   1.4075   0.37301   0.37141  -0.2827  0.0038  1.0000  -8.0909   0.0000   0.3002
  44.000   1.4079   0.37520   0.37362  -0.2883  0.0036  1.0000  -8.2029   0.0000   0.3006
  44.500   1.4104   0.37660   0.37501  -0.2935  0.0034  1.0000  -8.3662   0.0000   0.3002
  45.000   1.4038   0.38052   0.37904  -0.3001  0.0032  1.0000  -8.3364   0.0000   0.3023
  50.000   0.6792   0.49342   0.49275  -0.1936  0.0000  1.0000  -1.0150   0.0000   0.4099


