xflr5 v6.33

 Calculated polar for: Bell A821201 v4

 1 1 Reynolds number fixed          Mach number fixed         

 xtrf =   1.000 (top)        1.000 (bottom)
 Mach =   0.000     Re =     5.000 e 6     Ncrit =   9.000

  alpha     CL        CD       CDp       Cm    Top Xtr Bot Xtr   Cpmin    Chinge    XCp    
 ------- -------- --------- --------- -------- ------- ------- -------- --------- ---------
 -27.500  -0.7073   0.21385   0.21255  -0.0202  0.9932  0.0085  -7.5227   0.0000   0.1464
 -27.000  -0.6659   0.21719   0.21598  -0.0184  0.9908  0.0084  -6.7708   0.0000   0.1476
 -26.500  -0.6363   0.21907   0.21792  -0.0166  0.9895  0.0084  -6.1937   0.0000   0.1498
 -26.000  -0.6021   0.21911   0.21801  -0.0182  0.9873  0.0084  -5.6732   0.0000   0.1457
 -25.500  -0.5739   0.21689   0.21581  -0.0214  0.9835  0.0083  -5.3413   0.0000   0.1387
 -25.000  -0.5372   0.21349   0.21161  -0.0272  0.7910  0.0083  -4.9837   0.0000   0.1243
 -24.500  -0.5052   0.21272   0.21075  -0.0296  0.7631  0.0083  -4.5436   0.0000   0.1158
 -24.000  -0.4671   0.21312   0.21079  -0.0324  0.6565  0.0085  -3.9492   0.0000   0.1038
 -23.500  -0.4422   0.21029   0.20787  -0.0358  0.6292  0.0087  -3.6541   0.0000   0.0916
 -23.000  -0.4195   0.20679   0.20430  -0.0392  0.6110  0.0088  -3.4240   0.0000   0.0782
 -22.500  -0.3969   0.20342   0.20090  -0.0425  0.6034  0.0090  -3.1895   0.0000   0.0637
 -21.500  -1.0394   0.07490   0.07112  -0.1009  0.7662  0.0096  -10.8767   0.0000   0.1067
 -21.000  -1.0417   0.06878   0.06484  -0.1033  0.7442  0.0096  -10.7430   0.0000   0.1061
 -20.500  -1.0380   0.06340   0.05909  -0.1057  0.6522  0.0096  -10.5651   0.0000   0.1049
 -20.000  -1.0324   0.05846   0.05400  -0.1072  0.6296  0.0097  -10.3670   0.0000   0.1042
 -19.500  -1.0238   0.05404   0.04945  -0.1084  0.6117  0.0097  -10.1451   0.0000   0.1035
 -19.000  -1.0130   0.05001   0.04532  -0.1091  0.6046  0.0097  -9.9067   0.0000   0.1028
 -18.500  -0.9997   0.04631   0.04151  -0.1097  0.5948  0.0098  -9.6532   0.0000   0.1020
 -18.000  -0.9806   0.04333   0.03846  -0.1098  0.5874  0.0098  -9.3646   0.0000   0.1007
 -17.500  -0.9627   0.04026   0.03532  -0.1098  0.5845  0.0099  -9.0852   0.0000   0.0996
 -17.000  -0.9409   0.03763   0.03263  -0.1097  0.5807  0.0099  -8.7853   0.0000   0.0980
 -16.500  -0.9185   0.03511   0.03004  -0.1095  0.5759  0.0100  -8.4849   0.0000   0.0962
 -16.000  -0.8930   0.03287   0.02773  -0.1092  0.5697  0.0100  -8.1719   0.0000   0.0939
 -15.500  -0.8676   0.03068   0.02549  -0.1087  0.5651  0.0100  -7.8628   0.0000   0.0916
 -15.000  -0.8395   0.02877   0.02354  -0.1081  0.5647  0.0101  -7.5437   0.0000   0.0888
 -14.500  -0.8124   0.02681   0.02155  -0.1075  0.5642  0.0101  -7.2339   0.0000   0.0860
 -14.000  -0.7822   0.02516   0.01987  -0.1067  0.5634  0.0102  -6.9137   0.0000   0.0825
 -13.500  -0.7535   0.02347   0.01815  -0.1058  0.5625  0.0102  -6.6053   0.0000   0.0790
 -13.000  -0.7219   0.02199   0.01664  -0.1050  0.5612  0.0103  -6.2891   0.0000   0.0746
 -12.500  -0.6897   0.02051   0.01513  -0.1042  0.5597  0.0103  -5.9759   0.0000   0.0694
 -12.000  -0.6559   0.01910   0.01370  -0.1034  0.5579  0.0103  -5.6625   0.0000   0.0631
 -11.500  -0.6191   0.01783   0.01240  -0.1029  0.5558  0.0104  -5.3431   0.0000   0.0547
 -11.000  -0.5803   0.01658   0.01112  -0.1027  0.5532  0.0104  -5.0240   0.0000   0.0441
 -10.500  -0.5369   0.01540   0.00991  -0.1032  0.5498  0.0105  -4.6964   0.0000   0.0286
 -10.000  -0.4830   0.01431   0.00880  -0.1055  0.5462  0.0106  -4.3426   0.0000   0.0014
  -9.500  -0.4281   0.01330   0.00777  -0.1079  0.5436  0.0106  -3.9958   0.0000  -0.0333
  -9.000  -0.3861   0.01226   0.00672  -0.1077  0.5426  0.0107  -3.6981   0.0000  -0.0611
  -8.500  -0.3542   0.01122   0.00566  -0.1057  0.5424  0.0108  -3.4378   0.0000  -0.0807
  -8.000  -0.3258   0.01061   0.00504  -0.1014  0.5421  0.0108  -3.1995   0.0000  -0.0938
  -7.500  -0.3000   0.01016   0.00460  -0.0960  0.5416  0.0109  -2.9795   0.0000  -0.1026
  -7.000  -0.2762   0.00984   0.00428  -0.0898  0.5407  0.0110  -2.7725   0.0000  -0.1079
  -6.500  -0.2398   0.00946   0.00389  -0.0862  0.5391  0.0117  -2.5687   0.0000  -0.1436
  -6.000  -0.1988   0.00913   0.00358  -0.0833  0.5362  0.0129  -2.3429   0.0000  -0.2063
  -5.500  -0.1547   0.00887   0.00332  -0.0810  0.5335  0.0139  -2.1078   0.0000  -0.3167
  -5.000  -0.1118   0.00856   0.00304  -0.0785  0.5295  0.0207  -1.8849   0.0000  -0.5046
  -4.500  -0.0711   0.00819   0.00275  -0.0755  0.5239  0.0410  -1.6696   0.0000  -0.8838
  -4.000  -0.0298   0.00781   0.00248  -0.0726  0.5213  0.0708  -1.4586   0.0000  -2.3336
  -3.500   0.0119   0.00738   0.00222  -0.0698  0.5208  0.1116  -1.2538   0.0000   6.4259
  -3.000   0.0493   0.00684   0.00193  -0.0661  0.5200  0.1796  -1.0653   0.0000   1.6512
  -2.500   0.0793   0.00613   0.00159  -0.0609  0.5186  0.2847  -0.8978   0.0000   1.0465
  -1.500   0.1512   0.00492   0.00111  -0.0528  0.5095  0.5167  -0.9264   0.0000   0.6048
  -1.000   0.2085   0.00494   0.00115  -0.0530  0.5010  0.5347  -0.9791   0.0000   0.5043
  -0.500   0.2664   0.00498   0.00117  -0.0532  0.4975  0.5386  -1.0327   0.0000   0.4469
   0.000   0.3233   0.00507   0.00121  -0.0534  0.4872  0.5446  -1.0886   0.0000   0.4100
   0.500   0.3817   0.00515   0.00126  -0.0539  0.4759  0.5498  -1.1462   0.0000   0.3845
   1.000   0.4374   0.00539   0.00137  -0.0539  0.4465  0.5518  -1.2119   0.0000   0.3654
   1.500   0.4926   0.00570   0.00154  -0.0539  0.4145  0.5539  -1.2784   0.0000   0.3506
   2.000   0.5474   0.00603   0.00174  -0.0539  0.3846  0.5558  -1.3451   0.0000   0.3387
   2.500   0.6036   0.00630   0.00192  -0.0542  0.3648  0.5577  -1.4174   0.0000   0.3292
   3.000   0.6621   0.00657   0.00210  -0.0550  0.3486  0.5586  -1.4923   0.0000   0.3217
   3.500   0.7231   0.00680   0.00227  -0.0564  0.3349  0.5592  -1.5699   0.0000   0.3159
   4.000   0.7860   0.00705   0.00246  -0.0582  0.3221  0.5597  -1.6498   0.0000   0.3114
   4.500   0.8501   0.00735   0.00269  -0.0604  0.3080  0.5601  -1.7315   0.0000   0.3077
   5.000   0.9271   0.00760   0.00290  -0.0654  0.2981  0.5605  -1.8343   0.0000   0.3066
   5.500   0.9919   0.00793   0.00316  -0.0679  0.2835  0.5607  -1.9323   0.0000   0.3038
   6.000   1.0493   0.00826   0.00343  -0.0688  0.2716  0.5610  -2.0246   0.0000   0.3002
   6.500   1.1086   0.00848   0.00363  -0.0701  0.2649  0.5629  -2.1200   0.0000   0.2971
   7.000   1.1607   0.00886   0.00395  -0.0700  0.2519  0.5651  -2.2093   0.0000   0.2934
   7.500   1.2135   0.00913   0.00422  -0.0700  0.2454  0.5676  -2.3003   0.0000   0.2900
   8.000   1.2608   0.00956   0.00460  -0.0691  0.2327  0.5703  -2.3863   0.0000   0.2863
   8.500   1.3106   0.00989   0.00493  -0.0687  0.2268  0.5727  -2.4893   0.0000   0.2831
   9.000   1.3534   0.01040   0.00540  -0.0671  0.2158  0.5748  -2.5911   0.0000   0.2794
   9.500   1.3989   0.01082   0.00582  -0.0660  0.2103  0.5767  -2.6973   0.0000   0.2762
  10.000   1.4371   0.01146   0.00643  -0.0638  0.1999  0.5783  -2.7954   0.0000   0.2725
  10.500   1.4792   0.01199   0.00697  -0.0624  0.1955  0.5798  -2.8993   0.0000   0.2694
  11.000   1.5130   0.01283   0.00778  -0.0599  0.1877  0.5810  -2.9942   0.0000   0.2658
  11.500   1.5505   0.01357   0.00854  -0.0582  0.1829  0.5819  -3.0987   0.0000   0.2627
  12.000   1.5802   0.01472   0.00969  -0.0556  0.1764  0.5825  -3.1946   0.0000   0.2594
  12.500   1.6075   0.01614   0.01111  -0.0533  0.1688  0.5829  -3.2934   0.0000   0.2563
  13.000   1.6286   0.01821   0.01319  -0.0511  0.1607  0.5851  -3.3930   0.0000   0.2534
  13.500   1.6502   0.02059   0.01559  -0.0496  0.1535  0.5896  -3.4942   0.0000   0.2509
  14.000   1.6687   0.02320   0.01823  -0.0480  0.1484  0.5943  -3.5905   0.0000   0.2484
  14.500   1.6856   0.02603   0.02111  -0.0466  0.1428  0.5979  -3.6896   0.0000   0.2461
  15.000   1.7081   0.02856   0.02371  -0.0458  0.1406  0.6009  -3.8037   0.0000   0.2440
  15.500   1.7143   0.03239   0.02757  -0.0443  0.1348  0.6031  -3.8910   0.0000   0.2417
  16.000   1.7242   0.03595   0.03117  -0.0430  0.1290  0.6048  -3.9866   0.0000   0.2396
  16.500   1.7278   0.04010   0.03533  -0.0417  0.1226  0.6058  -4.0692   0.0000   0.2374
  17.000   1.7352   0.04401   0.03929  -0.0408  0.1168  0.6105  -4.1592   0.0000   0.2355
  17.500   1.7412   0.04809   0.04339  -0.0399  0.1104  0.6178  -4.2459   0.0000   0.2336
  18.000   1.7478   0.05229   0.04765  -0.0394  0.1061  0.6233  -4.3334   0.0000   0.2318
  18.500   1.7556   0.05635   0.05173  -0.0389  0.1016  0.6276  -4.4235   0.0000   0.2301
  19.500   1.7616   0.06580   0.06131  -0.0385  0.0924  0.6442  -4.5806   0.0000   0.2270
  20.000   1.7703   0.07001   0.06557  -0.0386  0.0876  0.6523  -4.6751   0.0000   0.2255
  20.500   1.7641   0.07592   0.07155  -0.0389  0.0825  0.6669  -4.7348   0.0000   0.2243
  21.000   1.7610   0.08164   0.07735  -0.0394  0.0785  0.6783  -4.8006   0.0000   0.2231
  21.500   1.7511   0.08827   0.08406  -0.0403  0.0739  0.6966  -4.8801   0.0000   0.2222
  22.000   1.7487   0.09411   0.09002  -0.0415  0.0704  0.7221  -5.0333   0.0000   0.2214
  22.500   1.7316   0.10196   0.09802  -0.0433  0.0659  0.7610  -5.1320   0.0000   0.2211
  24.000   1.7097   0.12371   0.12048  -0.0517  0.0571  1.0000  -5.5237   0.0000   0.2215
  24.500   1.6930   0.13172   0.12857  -0.0546  0.0544  1.0000  -5.6148   0.0000   0.2219
  25.000   1.6770   0.13963   0.13656  -0.0580  0.0517  1.0000  -5.7046   0.0000   0.2225
  25.500   1.6611   0.14767   0.14469  -0.0617  0.0490  1.0000  -5.7903   0.0000   0.2234
  26.000   1.6441   0.15594   0.15303  -0.0659  0.0461  1.0000  -5.8663   0.0000   0.2246
  26.500   1.6290   0.16401   0.16118  -0.0705  0.0435  1.0000  -5.9452   0.0000   0.2259
  27.000   1.6138   0.17203   0.16927  -0.0753  0.0405  1.0000  -6.0194   0.0000   0.2275
  27.500   1.6014   0.17972   0.17697  -0.0802  0.0360  1.0000  -6.1030   0.0000   0.2291
  28.000   1.5783   0.18921   0.18651  -0.0865  0.0309  1.0000  -6.1303   0.0000   0.2319
  28.500   1.5515   0.19947   0.19681  -0.0935  0.0256  1.0000  -6.1266   0.0000   0.2355
  29.000   1.5306   0.20891   0.20629  -0.1004  0.0217  1.0000  -6.1447   0.0000   0.2389
  29.500   1.5131   0.21781   0.21525  -0.1072  0.0183  1.0000  -6.1742   0.0000   0.2423
  30.000   1.4957   0.22668   0.22417  -0.1142  0.0148  1.0000  -6.1949   0.0000   0.2458
  30.500   1.4701   0.23724   0.23475  -0.1225  0.0098  1.0000  -6.1503   0.0000   0.2509
  31.000   1.4535   0.24626   0.24383  -0.1299  0.0075  1.0000  -6.1530   0.0000   0.2550
  31.500   1.4453   0.25370   0.25134  -0.1364  0.0068  1.0000  -6.2066   0.0000   0.2580
  32.000   1.4450   0.25949   0.25716  -0.1420  0.0060  1.0000  -6.3144   0.0000   0.2598
  32.500   1.4409   0.26603   0.26378  -0.1482  0.0058  1.0000  -6.3898   0.0000   0.2623
  33.000   1.4372   0.27244   0.27026  -0.1544  0.0055  0.9999  -6.4646   0.0000   0.2647
  33.500   1.4374   0.27796   0.27582  -0.1602  0.0052  0.9999  -6.5686   0.0000   0.2664
  34.000   1.4307   0.28497   0.28290  -0.1669  0.0048  0.9999  -6.6072   0.0000   0.2695
  34.500   1.4275   0.29112   0.28912  -0.1732  0.0045  0.9999  -6.6714   0.0000   0.2719
  35.000   1.4302   0.29583   0.29388  -0.1787  0.0044  0.9999  -6.7928   0.0000   0.2731
  35.500   1.4279   0.30163   0.29974  -0.1849  0.0043  0.9999  -6.8712   0.0000   0.2753
  36.000   1.4299   0.30629   0.30444  -0.1905  0.0041  0.9999  -6.9920   0.0000   0.2765
  36.500   1.4255   0.31242   0.31064  -0.1971  0.0039  0.9999  -7.0419   0.0000   0.2791
  37.000   1.4262   0.31719   0.31543  -0.2029  0.0037  0.9999  -7.1450   0.0000   0.2805
  37.500   1.4204   0.32354   0.32184  -0.2097  0.0033  0.9998  -7.1680   0.0000   0.2834
  38.000   1.4197   0.32844   0.32681  -0.2157  0.0033  0.9998  -7.2634   0.0000   0.2850
  38.500   1.4222   0.33240   0.33080  -0.2212  0.0032  0.9998  -7.4073   0.0000   0.2858
  39.000   1.4215   0.33709   0.33554  -0.2271  0.0031  0.9998  -7.5098   0.0000   0.2873
  39.500   1.4219   0.34133   0.33981  -0.2329  0.0029  0.9998  -7.6266   0.0000   0.2884
  40.000   1.4195   0.34626   0.34478  -0.2391  0.0028  0.9998  -7.7015   0.0000   0.2902
  40.500   1.4192   0.35043   0.34898  -0.2450  0.0026  0.9998  -7.8066   0.0000   0.2914
  41.000   1.4143   0.35586   0.35446  -0.2515  0.0024  0.9997  -7.8361   0.0000   0.2936
  41.500   1.4159   0.35924   0.35787  -0.2570  0.0023  0.9997  -7.9708   0.0000   0.2941
  42.000   1.4164   0.36266   0.36133  -0.2625  0.0022  0.9997  -8.0921   0.0000   0.2948
  42.500   1.4159   0.36582   0.36453  -0.2683  0.0021  0.9997  -8.1938   0.0000   0.2956
  43.000   1.4175   0.36804   0.36677  -0.2737  0.0021  0.9997  -8.3355   0.0000   0.2958
  43.500   1.4150   0.37096   0.36973  -0.2797  0.0020  0.9997  -8.4017   0.0000   0.2970
  44.000   1.4154   0.37285   0.37164  -0.2852  0.0018  0.9996  -8.5278   0.0000   0.2973
  44.500   1.4117   0.37565   0.37447  -0.2914  0.0017  0.9996  -8.5700   0.0000   0.2986
  45.000   1.4102   0.37776   0.37660  -0.2971  0.0015  0.9996  -8.6562   0.0000   0.2992
  45.500   1.4094   0.37955   0.37841  -0.3026  0.0014  0.9996  -8.7681   0.0000   0.2995


