xflr5 v6.33

 Calculated polar for: Bell A821201 v4

 1 1 Reynolds number fixed          Mach number fixed         

 xtrf =   1.000 (top)        1.000 (bottom)
 Mach =   0.000     Re =     2.700 e 6     Ncrit =   9.000

  alpha     CL        CD       CDp       Cm    Top Xtr Bot Xtr   Cpmin    Chinge    XCp    
 ------- -------- --------- --------- -------- ------- ------- -------- --------- ---------
 -24.500  -0.7128   0.17607   0.17426  -0.0383  0.9945  0.0105  -7.6439   0.0000   0.1315
 -24.000  -0.7476   0.15997   0.15797  -0.0491  0.9937  0.0106  -8.1902   0.0000   0.1222
 -23.500  -0.7683   0.14698   0.14481  -0.0582  0.9925  0.0106  -8.4820   0.0000   0.1142
 -23.000  -0.7955   0.13608   0.13377  -0.0631  0.9904  0.0107  -8.7111   0.0000   0.1131
 -22.500  -0.8155   0.12573   0.12327  -0.0685  0.9891  0.0107  -8.8557   0.0000   0.1106
 -22.000  -0.8350   0.11507   0.11247  -0.0746  0.9871  0.0107  -8.9807   0.0000   0.1073
 -21.500  -0.8478   0.10547   0.10273  -0.0802  0.9832  0.0107  -9.0265   0.0000   0.1039
 -21.000  -0.8553   0.09573   0.09282  -0.0868  0.9586  0.0108  -9.0299   0.0000   0.0986
 -20.500  -0.8375   0.08674   0.08299  -0.0969  0.7852  0.0108  -8.8845   0.0000   0.0851
 -20.000  -0.8437   0.07941   0.07546  -0.1004  0.7637  0.0108  -8.8227   0.0000   0.0836
 -19.500  -0.8426   0.07316   0.06893  -0.1033  0.7066  0.0108  -8.7007   0.0000   0.0814
 -19.000  -0.8373   0.06750   0.06294  -0.1061  0.6461  0.0109  -8.5457   0.0000   0.0786
 -18.500  -0.8306   0.06234   0.05762  -0.1080  0.6284  0.0109  -8.3729   0.0000   0.0765
 -18.000  -0.8204   0.05769   0.05283  -0.1096  0.6143  0.0109  -8.1750   0.0000   0.0742
 -17.500  -0.8149   0.05295   0.04797  -0.1107  0.6076  0.0109  -8.0125   0.0000   0.0733
 -17.000  -0.8117   0.04823   0.04311  -0.1113  0.6018  0.0110  -7.8683   0.0000   0.0735
 -16.500  -0.8034   0.04416   0.03890  -0.1116  0.5947  0.0111  -7.6869   0.0000   0.0729
 -16.000  -0.7915   0.04053   0.03516  -0.1117  0.5882  0.0112  -7.4811   0.0000   0.0718
 -15.500  -0.7754   0.03743   0.03198  -0.1115  0.5867  0.0112  -7.2500   0.0000   0.0702
 -15.000  -0.7562   0.03466   0.02914  -0.1111  0.5846  0.0113  -7.0025   0.0000   0.0680
 -14.500  -0.7356   0.03206   0.02646  -0.1106  0.5820  0.0114  -6.7483   0.0000   0.0653
 -14.000  -0.7101   0.02992   0.02426  -0.1100  0.5793  0.0115  -6.4724   0.0000   0.0613
 -13.500  -0.6847   0.02777   0.02204  -0.1095  0.5764  0.0116  -6.1995   0.0000   0.0570
 -13.000  -0.6553   0.02600   0.02022  -0.1089  0.5729  0.0116  -5.9118   0.0000   0.0512
 -12.500  -0.6263   0.02423   0.01839  -0.1083  0.5692  0.0117  -5.6297   0.0000   0.0448
 -12.000  -0.5931   0.02273   0.01684  -0.1079  0.5658  0.0118  -5.3346   0.0000   0.0361
 -11.500  -0.5598   0.02118   0.01527  -0.1074  0.5648  0.0119  -5.0444   0.0000   0.0263
 -11.000  -0.5231   0.01981   0.01388  -0.1072  0.5642  0.0121  -4.7467   0.0000   0.0133
 -10.500  -0.4824   0.01846   0.01251  -0.1076  0.5635  0.0122  -4.4422   0.0000  -0.0053
 -10.000  -0.4345   0.01719   0.01121  -0.1092  0.5624  0.0124  -4.1222   0.0000  -0.0346
  -9.500  -0.3922   0.01599   0.01000  -0.1095  0.5611  0.0125  -3.8268   0.0000  -0.0634
  -9.000  -0.3541   0.01483   0.00883  -0.1088  0.5598  0.0127  -3.5512   0.0000  -0.0925
  -8.500  -0.3183   0.01373   0.00771  -0.1076  0.5584  0.0130  -3.2878   0.0000  -0.1241
  -8.000  -0.2875   0.01261   0.00658  -0.1054  0.5570  0.0133  -3.0529   0.0000  -0.1537
  -7.500  -0.2664   0.01172   0.00565  -0.1007  0.5554  0.0136  -2.8651   0.0000  -0.1649
  -7.000  -0.2432   0.01121   0.00512  -0.0951  0.5536  0.0138  -2.6720   0.0000  -0.1779
  -6.500  -0.2267   0.01081   0.00470  -0.0877  0.5509  0.0151  -2.5170   0.0000  -0.1732
  -5.500  -0.1562   0.01008   0.00401  -0.0801  0.5425  0.0261  -2.1016   0.0000  -0.3057
  -5.000  -0.1224   0.00948   0.00355  -0.0760  0.5413  0.0552  -1.8998   0.0000  -0.4196
  -4.500  -0.0844   0.00897   0.00320  -0.0726  0.5402  0.0894  -1.6906   0.0000  -0.6721
  -4.000  -0.0489   0.00835   0.00281  -0.0687  0.5384  0.1452  -1.4922   0.0000  -1.2455
  -3.500  -0.0169   0.00762   0.00239  -0.0642  0.5357  0.2291  -1.3067   0.0000  -3.7725
  -3.000   0.0107   0.00678   0.00196  -0.0586  0.5331  0.3463  -1.1358   0.0000   6.0286
  -2.500   0.0342   0.00583   0.00158  -0.0522  0.5304  0.5078  -0.9775   0.0000   1.8483
  -2.000   0.0864   0.00582   0.00160  -0.0512  0.5265  0.5302  -0.8691   0.0000   0.8622
  -1.500   0.1413   0.00595   0.00168  -0.0508  0.5214  0.5412  -0.9198   0.0000   0.6158
  -1.000   0.1953   0.00591   0.00168  -0.0502  0.5201  0.5506  -0.9705   0.0000   0.5075
  -0.500   0.2495   0.00597   0.00175  -0.0496  0.5168  0.5575  -1.0218   0.0000   0.4458
   0.000   0.3045   0.00600   0.00174  -0.0493  0.5106  0.5591  -1.0762   0.0000   0.4066
   0.500   0.3581   0.00608   0.00176  -0.0487  0.5018  0.5600  -1.1307   0.0000   0.3792
   1.000   0.4141   0.00613   0.00180  -0.0486  0.4973  0.5607  -1.1953   0.0000   0.3594
   1.500   0.4700   0.00619   0.00180  -0.0487  0.4857  0.5640  -1.2623   0.0000   0.3445
   2.000   0.5254   0.00631   0.00185  -0.0487  0.4675  0.5670  -1.3294   0.0000   0.3326
   2.500   0.5778   0.00658   0.00199  -0.0482  0.4388  0.5691  -1.3970   0.0000   0.3225
   3.000   0.6282   0.00696   0.00222  -0.0473  0.4064  0.5707  -1.4651   0.0000   0.3137
   3.500   0.6813   0.00729   0.00245  -0.0471  0.3835  0.5721  -1.5358   0.0000   0.3068
   4.000   0.7357   0.00762   0.00270  -0.0472  0.3639  0.5734  -1.6083   0.0000   0.3011
   4.500   0.7912   0.00797   0.00296  -0.0476  0.3465  0.5747  -1.6823   0.0000   0.2964
   5.000   0.8499   0.00825   0.00321  -0.0487  0.3347  0.5761  -1.7640   0.0000   0.2929
   5.500   0.9106   0.00858   0.00349  -0.0503  0.3218  0.5773  -1.8569   0.0000   0.2902
   6.000   0.9725   0.00898   0.00382  -0.0523  0.3072  0.5784  -1.9520   0.0000   0.2881
   6.500   1.0435   0.00933   0.00414  -0.0563  0.2959  0.5794  -2.0568   0.0000   0.2876
   7.000   1.1077   0.00972   0.00449  -0.0589  0.2837  0.5804  -2.1564   0.0000   0.2861
   7.500   1.1628   0.01015   0.00487  -0.0597  0.2732  0.5812  -2.2485   0.0000   0.2835
   8.000   1.2146   0.01054   0.00525  -0.0598  0.2640  0.5819  -2.3382   0.0000   0.2806
   8.500   1.2601   0.01110   0.00576  -0.0588  0.2520  0.5825  -2.4302   0.0000   0.2772
   9.000   1.3084   0.01152   0.00619  -0.0584  0.2459  0.5829  -2.5376   0.0000   0.2743
   9.500   1.3502   0.01219   0.00682  -0.0571  0.2354  0.5852  -2.6379   0.0000   0.2711
  10.000   1.3938   0.01277   0.00743  -0.0561  0.2286  0.5890  -2.7415   0.0000   0.2682
  10.500   1.4283   0.01371   0.00835  -0.0540  0.2185  0.5927  -2.8343   0.0000   0.2648
  11.000   1.4652   0.01460   0.00928  -0.0525  0.2122  0.5955  -2.9309   0.0000   0.2618
  11.500   1.4919   0.01605   0.01073  -0.0500  0.2032  0.5979  -3.0185   0.0000   0.2585
  12.000   1.5234   0.01747   0.01219  -0.0485  0.1977  0.6001  -3.1131   0.0000   0.2558
  12.500   1.5485   0.01956   0.01431  -0.0471  0.1916  0.6020  -3.2027   0.0000   0.2533
  13.000   1.5686   0.02208   0.01686  -0.0456  0.1841  0.6037  -3.2949   0.0000   0.2508
  13.500   1.5937   0.02432   0.01916  -0.0446  0.1801  0.6050  -3.4001   0.0000   0.2485
  14.000   1.6040   0.02772   0.02257  -0.0429  0.1718  0.6059  -3.4802   0.0000   0.2461
  14.500   1.6224   0.03067   0.02558  -0.0421  0.1663  0.6106  -3.5766   0.0000   0.2440
  15.000   1.6273   0.03467   0.02962  -0.0407  0.1581  0.6161  -3.6528   0.0000   0.2418
  15.500   1.6406   0.03806   0.03307  -0.0398  0.1529  0.6207  -3.7472   0.0000   0.2398
  16.000   1.6489   0.04188   0.03693  -0.0388  0.1477  0.6246  -3.8351   0.0000   0.2377
  16.500   1.6575   0.04580   0.04090  -0.0380  0.1424  0.6278  -3.9249   0.0000   0.2358
  17.500   1.6778   0.05353   0.04873  -0.0370  0.1311  0.6418  -4.1106   0.0000   0.2323
  18.000   1.6889   0.05748   0.05278  -0.0368  0.1271  0.6496  -4.2053   0.0000   0.2308
  18.500   1.6952   0.06182   0.05714  -0.0366  0.1198  0.6598  -4.2895   0.0000   0.2292
  19.000   1.7003   0.06651   0.06193  -0.0367  0.1151  0.6728  -4.3704   0.0000   0.2278
  19.500   1.6981   0.07205   0.06752  -0.0369  0.1085  0.6878  -4.4335   0.0000   0.2265
  20.000   1.7085   0.07630   0.07189  -0.0374  0.1054  0.7096  -4.5252   0.0000   0.2253
  20.500   1.7026   0.08251   0.07823  -0.0382  0.1005  0.7399  -4.5819   0.0000   0.2243
  21.000   1.7029   0.08831   0.08424  -0.0395  0.0963  0.7974  -4.6517   0.0000   0.2236
  21.500   1.6816   0.09412   0.09050  -0.0368  0.0920  0.9975  -4.6758   0.0000   0.2208
  22.000   1.6986   0.10208   0.09854  -0.0442  0.0870  1.0000  -4.8429   0.0000   0.2234
  22.500   1.6855   0.10947   0.10601  -0.0460  0.0828  1.0000  -4.9518   0.0000   0.2231
  23.000   1.6749   0.11656   0.11317  -0.0480  0.0790  1.0000  -5.0683   0.0000   0.2229
  23.500   1.6598   0.12439   0.12107  -0.0505  0.0751  1.0000  -5.1646   0.0000   0.2231
  24.000   1.6468   0.13200   0.12876  -0.0534  0.0713  1.0000  -5.2663   0.0000   0.2235
  24.500   1.6306   0.14008   0.13692  -0.0568  0.0677  1.0000  -5.3510   0.0000   0.2242
  25.000   1.6155   0.14812   0.14505  -0.0605  0.0643  1.0000  -5.4360   0.0000   0.2252
  25.500   1.6031   0.15587   0.15288  -0.0645  0.0616  1.0000  -5.5280   0.0000   0.2263
  26.000   1.5864   0.16429   0.16138  -0.0691  0.0583  1.0000  -5.5961   0.0000   0.2279
  26.500   1.5806   0.17105   0.16823  -0.0733  0.0563  1.0000  -5.7109   0.0000   0.2289
  27.000   1.5725   0.17816   0.17539  -0.0779  0.0530  1.0000  -5.8118   0.0000   0.2303
  27.500   1.5649   0.18527   0.18258  -0.0828  0.0508  1.0000  -5.9110   0.0000   0.2318
  28.000   1.5507   0.19346   0.19083  -0.0884  0.0473  1.0000  -5.9743   0.0000   0.2341
  28.500   1.5492   0.19958   0.19700  -0.0932  0.0443  1.0000  -6.1070   0.0000   0.2354
  29.000   1.5362   0.20763   0.20510  -0.0993  0.0410  1.0000  -6.1713   0.0000   0.2379
  29.500   1.5231   0.21573   0.21325  -0.1056  0.0373  1.0000  -6.2289   0.0000   0.2407
  30.000   1.5083   0.22410   0.22166  -0.1123  0.0329  1.0000  -6.2686   0.0000   0.2439
  30.500   1.4904   0.23309   0.23068  -0.1196  0.0274  1.0000  -6.2798   0.0000   0.2477
  31.000   1.4721   0.24234   0.23996  -0.1273  0.0229  1.0000  -6.2768   0.0000   0.2519
  31.500   1.4561   0.25126   0.24890  -0.1348  0.0187  1.0000  -6.2782   0.0000   0.2561
  32.000   1.4433   0.25964   0.25729  -0.1422  0.0140  1.0000  -6.2915   0.0000   0.2600
  32.500   1.4209   0.27017   0.26784  -0.1510  0.0096  1.0000  -6.2159   0.0000   0.2658
  33.000   1.4120   0.27790   0.27561  -0.1581  0.0080  1.0000  -6.2365   0.0000   0.2694
  33.500   1.4060   0.28500   0.28278  -0.1649  0.0072  1.0000  -6.2724   0.0000   0.2726
  34.000   1.4005   0.29196   0.28980  -0.1717  0.0067  1.0000  -6.3063   0.0000   0.2757
  34.500   1.3953   0.29882   0.29673  -0.1785  0.0061  1.0000  -6.3347   0.0000   0.2788
  35.000   1.3965   0.30406   0.30202  -0.1843  0.0058  1.0000  -6.4287   0.0000   0.2805
  35.500   1.3951   0.30985   0.30788  -0.1905  0.0056  1.0000  -6.4979   0.0000   0.2827
  36.000   1.3965   0.31483   0.31290  -0.1963  0.0053  1.0000  -6.5973   0.0000   0.2843
  36.500   1.3933   0.32089   0.31902  -0.2029  0.0050  1.0000  -6.6392   0.0000   0.2869
  37.000   1.3900   0.32694   0.32512  -0.2094  0.0046  1.0000  -6.6707   0.0000   0.2895
  37.500   1.3930   0.33119   0.32941  -0.2150  0.0045  1.0000  -6.7905   0.0000   0.2905
  38.000   1.3951   0.33551   0.33379  -0.2206  0.0044  1.0000  -6.9027   0.0000   0.2916
  38.500   1.3966   0.33982   0.33814  -0.2263  0.0042  1.0000  -7.0188   0.0000   0.2928
  39.000   1.3991   0.34379   0.34214  -0.2319  0.0040  1.0000  -7.1519   0.0000   0.2936
  41.000   1.4022   0.35989   0.35837  -0.2548  0.0032  1.0000  -7.5857   0.0000   0.2977
  41.500   1.4044   0.36299   0.36151  -0.2601  0.0031  1.0000  -7.7223   0.0000   0.2981
  42.000   1.4040   0.36631   0.36487  -0.2659  0.0029  1.0000  -7.8160   0.0000   0.2990
  42.500   1.4057   0.36872   0.36730  -0.2713  0.0028  0.9999  -7.9487   0.0000   0.2993
  43.000   1.4061   0.37122   0.36983  -0.2769  0.0027  0.9999  -8.0605   0.0000   0.2999
  43.500   1.4053   0.37372   0.37235  -0.2827  0.0025  0.9999  -8.1479   0.0000   0.3007
  44.000   1.4074   0.37531   0.37395  -0.2879  0.0023  0.9999  -8.2973   0.0000   0.3005
  44.500   1.4077   0.37715   0.37583  -0.2933  0.0022  0.9999  -8.4175   0.0000   0.3007
  45.000   1.4057   0.37947   0.37821  -0.2991  0.0021  0.9999  -8.4878   0.0000   0.3014
  45.500   1.4052   0.38131   0.38008  -0.3046  0.0020  0.9999  -8.6105   0.0000   0.3016


