xflr5 v6.33

 Calculated polar for: Bell A821201 v4

 1 1 Reynolds number fixed          Mach number fixed         

 xtrf =   1.000 (top)        1.000 (bottom)
 Mach =   0.000     Re =     4.000 e 6     Ncrit =   9.000

  alpha     CL        CD       CDp       Cm    Top Xtr Bot Xtr   Cpmin    Chinge    XCp    
 ------- -------- --------- --------- -------- ------- ------- -------- --------- ---------
 -26.500  -0.7377   0.19764   0.19613  -0.0266  0.9942  0.0094  -8.0148   0.0000   0.1436
 -26.000  -0.7602   0.18378   0.18213  -0.0368  0.9936  0.0095  -8.5058   0.0000   0.1336
 -25.500  -0.7774   0.17111   0.16933  -0.0464  0.9926  0.0097  -8.8479   0.0000   0.1243
 -25.000  -0.8061   0.15996   0.15806  -0.0519  0.9908  0.0097  -9.1675   0.0000   0.1223
 -24.500  -0.8313   0.14968   0.14767  -0.0569  0.9901  0.0098  -9.4029   0.0000   0.1208
 -24.000  -0.8601   0.13797   0.13582  -0.0635  0.9891  0.0099  -9.6655   0.0000   0.1179
 -23.500  -0.8895   0.12606   0.12375  -0.0704  0.9878  0.0099  -9.9001   0.0000   0.1149
 -23.000  -0.9146   0.11497   0.11251  -0.0768  0.9856  0.0099  -10.0622   0.0000   0.1122
 -22.500  -0.9380   0.10427   0.10165  -0.0828  0.9820  0.0099  -10.1817   0.0000   0.1099
 -22.000  -0.9410   0.09348   0.09014  -0.0925  0.8202  0.0100  -10.1718   0.0000   0.1014
 -21.500  -0.9571   0.08486   0.08124  -0.0968  0.7850  0.0100  -10.1811   0.0000   0.1005
 -21.000  -0.9657   0.07757   0.07378  -0.1001  0.7674  0.0101  -10.1175   0.0000   0.0997
 -20.500  -0.9715   0.07081   0.06683  -0.1029  0.7439  0.0101  -10.0217   0.0000   0.0990
 -20.000  -0.9705   0.06494   0.06057  -0.1056  0.6531  0.0101  -9.8753   0.0000   0.0976
 -19.500  -0.9657   0.05979   0.05526  -0.1073  0.6307  0.0102  -9.6947   0.0000   0.0966
 -19.000  -0.9581   0.05515   0.05047  -0.1087  0.6147  0.0102  -9.4910   0.0000   0.0957
 -18.500  -0.9482   0.05094   0.04617  -0.1095  0.6064  0.0102  -9.2703   0.0000   0.0948
 -18.000  -0.9335   0.04733   0.04245  -0.1101  0.5982  0.0103  -9.0195   0.0000   0.0935
 -17.500  -0.9167   0.04403   0.03906  -0.1104  0.5882  0.0103  -8.7568   0.0000   0.0920
 -17.000  -0.9000   0.04082   0.03577  -0.1105  0.5862  0.0104  -8.4951   0.0000   0.0907
 -16.500  -0.8780   0.03818   0.03308  -0.1103  0.5832  0.0104  -8.2055   0.0000   0.0886
 -16.000  -0.8570   0.03552   0.03034  -0.1101  0.5796  0.0105  -7.9239   0.0000   0.0866
 -15.500  -0.8314   0.03326   0.02801  -0.1098  0.5750  0.0105  -7.6215   0.0000   0.0837
 -15.000  -0.8066   0.03099   0.02567  -0.1095  0.5698  0.0105  -7.3271   0.0000   0.0809
 -14.500  -0.7781   0.02907   0.02370  -0.1090  0.5659  0.0106  -7.0178   0.0000   0.0771
 -14.000  -0.7511   0.02708   0.02167  -0.1084  0.5649  0.0106  -6.7199   0.0000   0.0735
 -13.500  -0.7210   0.02542   0.01998  -0.1077  0.5644  0.0106  -6.4118   0.0000   0.0690
 -13.000  -0.6923   0.02370   0.01823  -0.1068  0.5637  0.0107  -6.1145   0.0000   0.0646
 -12.500  -0.6605   0.02222   0.01673  -0.1060  0.5628  0.0107  -5.8089   0.0000   0.0588
 -12.000  -0.6281   0.02072   0.01520  -0.1052  0.5617  0.0107  -5.5067   0.0000   0.0521
 -11.500  -0.5937   0.01932   0.01378  -0.1046  0.5604  0.0108  -5.2029   0.0000   0.0437
 -11.000  -0.5565   0.01804   0.01247  -0.1042  0.5588  0.0108  -4.8944   0.0000   0.0327
 -10.500  -0.5164   0.01678   0.01119  -0.1042  0.5569  0.0108  -4.5836   0.0000   0.0179
 -10.000  -0.4694   0.01560   0.00998  -0.1054  0.5546  0.0109  -4.2575   0.0000  -0.0055
  -9.500  -0.4134   0.01451   0.00886  -0.1082  0.5518  0.0109  -3.9121   0.0000  -0.0442
  -9.000  -0.3711   0.01341   0.00774  -0.1082  0.5491  0.0109  -3.6204   0.0000  -0.0751
  -8.500  -0.3365   0.01222   0.00650  -0.1070  0.5465  0.0111  -3.3648   0.0000  -0.1021
  -8.000  -0.3144   0.01123   0.00547  -0.1028  0.5441  0.0114  -3.1556   0.0000  -0.1108
  -7.500  -0.2901   0.01068   0.00490  -0.0974  0.5426  0.0119  -2.9596   0.0000  -0.1196
  -7.000  -0.2733   0.01030   0.00453  -0.0900  0.5422  0.0123  -2.7809   0.0000  -0.1125
  -6.500  -0.2374   0.00993   0.00417  -0.0863  0.5416  0.0130  -2.5572   0.0000  -0.1483
  -6.000  -0.1965   0.00960   0.00385  -0.0835  0.5401  0.0137  -2.3259   0.0000  -0.2127
  -5.500  -0.1546   0.00926   0.00353  -0.0808  0.5378  0.0163  -2.1050   0.0000  -0.3155
  -5.000  -0.1147   0.00885   0.00320  -0.0777  0.5358  0.0303  -1.8883   0.0000  -0.4789
  -4.500  -0.0755   0.00841   0.00287  -0.0745  0.5326  0.0580  -1.6765   0.0000  -0.8051
  -4.000  -0.0355   0.00799   0.00257  -0.0714  0.5281  0.0924  -1.4683   0.0000  -1.8856
  -3.500   0.0023   0.00751   0.00229  -0.0678  0.5240  0.1457  -1.2714   0.0000  31.8903
  -3.000   0.0358   0.00691   0.00197  -0.0634  0.5213  0.2281  -1.0899   0.0000   2.1048
  -2.500   0.0618   0.00611   0.00159  -0.0574  0.5206  0.3482  -0.9289   0.0000   1.2175
  -2.000   0.0911   0.00526   0.00126  -0.0521  0.5195  0.4999  -0.8722   0.0000   0.8401
  -1.500   0.1470   0.00518   0.00127  -0.0520  0.5167  0.5295  -0.9238   0.0000   0.6092
  -1.000   0.2036   0.00523   0.00129  -0.0519  0.5108  0.5387  -0.9761   0.0000   0.5052
  -0.500   0.2595   0.00530   0.00131  -0.0518  0.5015  0.5428  -1.0283   0.0000   0.4466
   0.000   0.3165   0.00531   0.00136  -0.0519  0.4980  0.5527  -1.0842   0.0000   0.4089
   0.500   0.3736   0.00539   0.00139  -0.0521  0.4887  0.5542  -1.1409   0.0000   0.3827
   1.000   0.4303   0.00550   0.00144  -0.0522  0.4757  0.5559  -1.2070   0.0000   0.3635
   1.500   0.4841   0.00576   0.00156  -0.0519  0.4469  0.5574  -1.2725   0.0000   0.3482
   2.000   0.5363   0.00609   0.00174  -0.0513  0.4156  0.5590  -1.3373   0.0000   0.3357
   2.500   0.5884   0.00644   0.00196  -0.0507  0.3873  0.5599  -1.4056   0.0000   0.3255
   3.000   0.6433   0.00673   0.00215  -0.0508  0.3674  0.5603  -1.4775   0.0000   0.3174
   3.500   0.6998   0.00700   0.00235  -0.0512  0.3509  0.5606  -1.5513   0.0000   0.3110
   4.000   0.7583   0.00726   0.00254  -0.0521  0.3369  0.5608  -1.6274   0.0000   0.3058
   4.500   0.8217   0.00753   0.00276  -0.0542  0.3231  0.5621  -1.7081   0.0000   0.3024
   5.000   0.8901   0.00784   0.00300  -0.0574  0.3100  0.5645  -1.8007   0.0000   0.3003
   5.500   0.9707   0.00812   0.00324  -0.0633  0.2981  0.5670  -1.9124   0.0000   0.3005
   6.000   1.0370   0.00846   0.00352  -0.0662  0.2839  0.5692  -2.0127   0.0000   0.2984
   6.500   1.0943   0.00880   0.00382  -0.0672  0.2733  0.5711  -2.1057   0.0000   0.2952
   7.000   1.1492   0.00908   0.00409  -0.0676  0.2652  0.5729  -2.1976   0.0000   0.2919
   7.500   1.1983   0.00950   0.00446  -0.0670  0.2529  0.5745  -2.2845   0.0000   0.2882
   8.000   1.2499   0.00981   0.00477  -0.0669  0.2460  0.5761  -2.3749   0.0000   0.2850
   8.500   1.2948   0.01030   0.00521  -0.0656  0.2346  0.5775  -2.4706   0.0000   0.2813
   9.000   1.3416   0.01070   0.00560  -0.0647  0.2282  0.5789  -2.5770   0.0000   0.2781
   9.500   1.3822   0.01130   0.00617  -0.0629  0.2174  0.5801  -2.6768   0.0000   0.2745
  10.000   1.4246   0.01182   0.00669  -0.0615  0.2116  0.5811  -2.7800   0.0000   0.2712
  10.500   1.4590   0.01264   0.00747  -0.0590  0.2019  0.5820  -2.8736   0.0000   0.2675
  11.000   1.4973   0.01335   0.00820  -0.0573  0.1967  0.5826  -2.9735   0.0000   0.2644
  11.500   1.5286   0.01441   0.00925  -0.0549  0.1902  0.5830  -3.0691   0.0000   0.2611
  12.000   1.5608   0.01557   0.01044  -0.0530  0.1836  0.5863  -3.1668   0.0000   0.2581
  12.500   1.5914   0.01698   0.01189  -0.0514  0.1786  0.5905  -3.2688   0.0000   0.2554
  13.000   1.6118   0.01932   0.01424  -0.0496  0.1696  0.5945  -3.3654   0.0000   0.2527
  13.500   1.6355   0.02156   0.01653  -0.0483  0.1638  0.5977  -3.4698   0.0000   0.2503
  14.000   1.6483   0.02462   0.01960  -0.0464  0.1551  0.6004  -3.5557   0.0000   0.2477
  14.500   1.6633   0.02767   0.02269  -0.0450  0.1506  0.6027  -3.6494   0.0000   0.2454
  15.000   1.6740   0.03113   0.02617  -0.0436  0.1446  0.6044  -3.7400   0.0000   0.2431
  15.500   1.6916   0.03405   0.02916  -0.0427  0.1416  0.6055  -3.8464   0.0000   0.2410
  16.000   1.7028   0.03757   0.03273  -0.0417  0.1371  0.6083  -3.9437   0.0000   0.2390
  16.500   1.7074   0.04170   0.03690  -0.0405  0.1300  0.6152  -4.0274   0.0000   0.2369
  17.000   1.7163   0.04559   0.04085  -0.0398  0.1254  0.6209  -4.1197   0.0000   0.2351
  17.500   1.7193   0.05002   0.04530  -0.0390  0.1183  0.6254  -4.1993   0.0000   0.2332
  18.000   1.7293   0.05384   0.04915  -0.0385  0.1132  0.6289  -4.2936   0.0000   0.2314
  18.500   1.7314   0.05860   0.05396  -0.0381  0.1073  0.6379  -4.3702   0.0000   0.2298
  19.000   1.7434   0.06237   0.05780  -0.0380  0.1036  0.6475  -4.4681   0.0000   0.2282
  20.000   1.7464   0.07248   0.06806  -0.0382  0.0945  0.6711  -4.6176   0.0000   0.2255
  20.500   1.7465   0.07771   0.07334  -0.0386  0.0886  0.6859  -4.6913   0.0000   0.2242
  21.000   1.7453   0.08334   0.07908  -0.0393  0.0851  0.7053  -4.7606   0.0000   0.2232
  21.500   1.7354   0.09006   0.08592  -0.0403  0.0800  0.7348  -4.8250   0.0000   0.2224
  22.000   1.7298   0.09650   0.09254  -0.0419  0.0767  0.7851  -4.9636   0.0000   0.2218
  22.500   1.6865   0.10179   0.09832  -0.0352  0.0735  0.9952  -4.9818   0.0000   0.2169
  23.000   1.7132   0.11179   0.10840  -0.0475  0.0685  1.0000  -5.2166   0.0000   0.2222
  23.500   1.6953   0.11983   0.11652  -0.0499  0.0646  1.0000  -5.3064   0.0000   0.2222
  24.000   1.6806   0.12758   0.12436  -0.0525  0.0618  1.0000  -5.4057   0.0000   0.2224
  24.500   1.6615   0.13597   0.13283  -0.0558  0.0584  1.0000  -5.4827   0.0000   0.2231
  25.000   1.6611   0.14179   0.13871  -0.0585  0.0566  1.0000  -5.6353   0.0000   0.2231
  25.500   1.6439   0.15006   0.14706  -0.0625  0.0536  1.0000  -5.7128   0.0000   0.2242
  26.000   1.6318   0.15769   0.15478  -0.0665  0.0511  1.0000  -5.8083   0.0000   0.2252
  26.500   1.6157   0.16590   0.16306  -0.0712  0.0482  1.0000  -5.8814   0.0000   0.2267
  27.000   1.6022   0.17374   0.17099  -0.0760  0.0456  1.0000  -5.9612   0.0000   0.2283
  27.500   1.5864   0.18203   0.17933  -0.0813  0.0422  1.0000  -6.0243   0.0000   0.2303
  28.000   1.5802   0.18883   0.18617  -0.0861  0.0384  1.0000  -6.1383   0.0000   0.2317
  28.500   1.5634   0.19742   0.19481  -0.0922  0.0345  1.0000  -6.1910   0.0000   0.2343
  29.000   1.5390   0.20736   0.20478  -0.0994  0.0289  1.0000  -6.1923   0.0000   0.2379
  29.500   1.5177   0.21690   0.21436  -0.1066  0.0243  1.0000  -6.2002   0.0000   0.2416
  30.000   1.5000   0.22581   0.22331  -0.1136  0.0205  1.0000  -6.2207   0.0000   0.2452
  30.500   1.4825   0.23479   0.23234  -0.1209  0.0168  1.0000  -6.2317   0.0000   0.2491
  31.000   1.4612   0.24470   0.24227  -0.1289  0.0122  1.0000  -6.2049   0.0000   0.2538
  31.500   1.4414   0.25449   0.25210  -0.1370  0.0086  1.0000  -6.1742   0.0000   0.2587
  32.000   1.4326   0.26213   0.25979  -0.1439  0.0072  1.0000  -6.2138   0.0000   0.2620
  32.500   1.4316   0.26811   0.26582  -0.1497  0.0066  1.0000  -6.3091   0.0000   0.2640
  33.000   1.4246   0.27533   0.27311  -0.1565  0.0059  1.0000  -6.3498   0.0000   0.2672
  33.500   1.4219   0.28156   0.27941  -0.1627  0.0057  1.0000  -6.4234   0.0000   0.2696
  34.000   1.4236   0.28676   0.28466  -0.1684  0.0055  1.0000  -6.5333   0.0000   0.2711
  34.500   1.4183   0.29348   0.29145  -0.1750  0.0052  1.0000  -6.5745   0.0000   0.2740
  35.000   1.4152   0.29960   0.29762  -0.1814  0.0048  1.0000  -6.6332   0.0000   0.2765
  35.500   1.4142   0.30515   0.30323  -0.1875  0.0045  1.0000  -6.7162   0.0000   0.2785
  36.000   1.4128   0.31068   0.30883  -0.1936  0.0044  1.0000  -6.7946   0.0000   0.2805
  36.500   1.4158   0.31504   0.31323  -0.1990  0.0043  1.0000  -6.9195   0.0000   0.2815
  37.000   1.4131   0.32072   0.31897  -0.2054  0.0041  0.9999  -6.9774   0.0000   0.2838
  37.500   1.4145   0.32525   0.32353  -0.2111  0.0039  0.9999  -7.0860   0.0000   0.2850
  38.000   1.4106   0.33105   0.32939  -0.2176  0.0036  0.9999  -7.1326   0.0000   0.2875
  38.500   1.4065   0.33687   0.33526  -0.2242  0.0033  0.9999  -7.1802   0.0000   0.2899
  39.000   1.4096   0.34055   0.33897  -0.2295  0.0033  0.9999  -7.3273   0.0000   0.2905
  39.500   1.4121   0.34428   0.34274  -0.2350  0.0032  0.9999  -7.4683   0.0000   0.2912
  40.000   1.4112   0.34880   0.34731  -0.2409  0.0030  0.9999  -7.5603   0.0000   0.2926
  40.500   1.4130   0.35240   0.35093  -0.2464  0.0029  0.9999  -7.6938   0.0000   0.2933
  41.000   1.4106   0.35707   0.35564  -0.2526  0.0028  0.9998  -7.7616   0.0000   0.2949
  41.500   1.4110   0.36080   0.35940  -0.2582  0.0026  0.9998  -7.8732   0.0000   0.2957
  42.000   1.4076   0.36521   0.36384  -0.2645  0.0023  0.9998  -7.9168   0.0000   0.2975
  42.500   1.4097   0.36754   0.36620  -0.2698  0.0023  0.9998  -8.0594   0.0000   0.2977
  43.000   1.4101   0.37000   0.36870  -0.2754  0.0022  0.9998  -8.1763   0.0000   0.2982
  43.500   1.4100   0.37229   0.37103  -0.2810  0.0021  0.9998  -8.2819   0.0000   0.2988
  44.000   1.4111   0.37405   0.37281  -0.2864  0.0020  0.9997  -8.4172   0.0000   0.2989
  44.500   1.4089   0.37648   0.37528  -0.2923  0.0019  0.9997  -8.4887   0.0000   0.2998
  45.000   1.4086   0.37832   0.37714  -0.2978  0.0018  0.9997  -8.6011   0.0000   0.3000
  45.500   1.4051   0.38090   0.37974  -0.3038  0.0016  0.9997  -8.6521   0.0000   0.3011


