xflr5 v6.33

 Calculated polar for: Bell A821201 v4

 1 1 Reynolds number fixed          Mach number fixed         

 xtrf =   1.000 (top)        1.000 (bottom)
 Mach =   0.000     Re =     4.900 e 6     Ncrit =   9.000

  alpha     CL        CD       CDp       Cm    Top Xtr Bot Xtr   Cpmin    Chinge    XCp    
 ------- -------- --------- --------- -------- ------- ------- -------- --------- ---------
 -27.500  -0.7561   0.20540   0.20396  -0.0230  0.9938  0.0089  -8.3290   0.0000   0.1465
 -27.000  -0.7744   0.19282   0.19127  -0.0324  0.9933  0.0091  -8.7755   0.0000   0.1373
 -26.500  -0.7847   0.18202   0.18037  -0.0408  0.9926  0.0092  -9.0370   0.0000   0.1290
 -26.000  -0.8118   0.17163   0.16989  -0.0457  0.9908  0.0093  -9.3573   0.0000   0.1274
 -25.500  -0.8388   0.16128   0.15944  -0.0507  0.9902  0.0094  -9.6400   0.0000   0.1259
 -25.000  -0.8670   0.14984   0.14787  -0.0573  0.9895  0.0094  -9.9250   0.0000   0.1228
 -24.500  -0.9004   0.13737   0.13525  -0.0647  0.9885  0.0095  -10.2328   0.0000   0.1195
 -24.000  -0.9354   0.12479   0.12250  -0.0721  0.9872  0.0095  -10.5120   0.0000   0.1168
 -23.500  -0.9690   0.11268   0.11023  -0.0790  0.9851  0.0095  -10.7388   0.0000   0.1146
 -23.000  -0.9978   0.10149   0.09888  -0.0853  0.9819  0.0095  -10.8905   0.0000   0.1128
 -22.500  -1.0042   0.09171   0.08832  -0.0932  0.8061  0.0096  -10.8707   0.0000   0.1072
 -22.000  -1.0202   0.08330   0.07970  -0.0972  0.7830  0.0096  -10.8674   0.0000   0.1065
 -21.500  -1.0324   0.07572   0.07195  -0.1006  0.7681  0.0096  -10.8183   0.0000   0.1062
 -21.000  -1.0359   0.06941   0.06549  -0.1031  0.7479  0.0096  -10.6950   0.0000   0.1057
 -20.500  -1.0325   0.06398   0.05968  -0.1055  0.6547  0.0097  -10.5206   0.0000   0.1044
 -20.000  -1.0273   0.05898   0.05452  -0.1071  0.6310  0.0097  -10.3260   0.0000   0.1036
 -19.500  -1.0191   0.05448   0.04989  -0.1083  0.6136  0.0097  -10.1082   0.0000   0.1029
 -19.000  -1.0087   0.05040   0.04571  -0.1091  0.6056  0.0098  -9.8740   0.0000   0.1023
 -18.500  -0.9955   0.04667   0.04188  -0.1097  0.5963  0.0098  -9.6217   0.0000   0.1014
 -18.000  -0.9765   0.04367   0.03879  -0.1098  0.5877  0.0099  -9.3347   0.0000   0.1000
 -17.500  -0.9593   0.04053   0.03559  -0.1099  0.5849  0.0099  -9.0596   0.0000   0.0990
 -17.000  -0.9370   0.03793   0.03293  -0.1097  0.5813  0.0100  -8.7584   0.0000   0.0973
 -16.500  -0.9154   0.03534   0.03026  -0.1095  0.5768  0.0100  -8.4633   0.0000   0.0957
 -16.000  -0.8896   0.03311   0.02797  -0.1092  0.5707  0.0100  -8.1493   0.0000   0.0933
 -15.500  -0.8648   0.03087   0.02567  -0.1088  0.5656  0.0101  -7.8439   0.0000   0.0910
 -15.000  -0.8366   0.02897   0.02373  -0.1082  0.5648  0.0101  -7.5247   0.0000   0.0881
 -14.500  -0.8098   0.02698   0.02170  -0.1076  0.5643  0.0102  -7.2173   0.0000   0.0854
 -14.000  -0.7796   0.02533   0.02003  -0.1068  0.5636  0.0102  -6.8974   0.0000   0.0817
 -13.500  -0.7511   0.02361   0.01828  -0.1060  0.5627  0.0103  -6.5905   0.0000   0.0783
 -13.000  -0.7194   0.02214   0.01678  -0.1051  0.5615  0.0103  -6.2744   0.0000   0.0738
 -12.500  -0.6875   0.02064   0.01525  -0.1043  0.5600  0.0103  -5.9632   0.0000   0.0686
 -12.000  -0.6536   0.01924   0.01383  -0.1036  0.5583  0.0104  -5.6496   0.0000   0.0622
 -11.500  -0.6171   0.01796   0.01252  -0.1030  0.5563  0.0104  -5.3321   0.0000   0.0539
 -11.000  -0.5785   0.01669   0.01122  -0.1028  0.5539  0.0105  -5.0143   0.0000   0.0433
 -10.500  -0.5354   0.01550   0.01000  -0.1033  0.5506  0.0105  -4.6881   0.0000   0.0279
 -10.000  -0.4821   0.01441   0.00889  -0.1055  0.5470  0.0106  -4.3367   0.0000   0.0011
  -9.500  -0.4270   0.01340   0.00786  -0.1079  0.5443  0.0107  -3.9894   0.0000  -0.0341
  -9.000  -0.3847   0.01236   0.00681  -0.1078  0.5426  0.0107  -3.6910   0.0000  -0.0625
  -8.500  -0.3522   0.01131   0.00574  -0.1059  0.5424  0.0108  -3.4295   0.0000  -0.0833
  -8.000  -0.3244   0.01067   0.00509  -0.1016  0.5421  0.0108  -3.1917   0.0000  -0.0959
  -7.500  -0.2980   0.01022   0.00464  -0.0963  0.5417  0.0109  -2.9707   0.0000  -0.1061
  -7.000  -0.2762   0.00987   0.00430  -0.0898  0.5409  0.0111  -2.7756   0.0000  -0.1079
  -6.500  -0.2397   0.00950   0.00391  -0.0862  0.5394  0.0119  -2.5697   0.0000  -0.1437
  -6.000  -0.1987   0.00917   0.00360  -0.0833  0.5366  0.0130  -2.3416   0.0000  -0.2067
  -5.500  -0.1546   0.00890   0.00333  -0.0810  0.5340  0.0142  -2.1082   0.0000  -0.3167
  -5.000  -0.1121   0.00858   0.00305  -0.0784  0.5303  0.0215  -1.8852   0.0000  -0.5021
  -4.500  -0.0715   0.00821   0.00275  -0.0754  0.5247  0.0424  -1.6703   0.0000  -0.8763
  -4.000  -0.0302   0.00784   0.00250  -0.0725  0.5213  0.0719  -1.4592   0.0000  -2.2952
  -3.500   0.0108   0.00739   0.00223  -0.0695  0.5209  0.1148  -1.2560   0.0000   7.0572
  -3.000   0.0478   0.00683   0.00193  -0.0658  0.5201  0.1852  -1.0680   0.0000   1.6878
  -2.000   0.1008   0.00530   0.00122  -0.0539  0.5164  0.4289  -0.8781   0.0000   0.8004
  -1.500   0.1509   0.00494   0.00112  -0.0527  0.5104  0.5175  -0.9262   0.0000   0.6052
  -1.000   0.2078   0.00497   0.00116  -0.0529  0.5012  0.5353  -0.9788   0.0000   0.5045
  -0.500   0.2658   0.00501   0.00118  -0.0531  0.4981  0.5388  -1.0323   0.0000   0.4469
   0.000   0.3229   0.00508   0.00122  -0.0533  0.4887  0.5457  -1.0884   0.0000   0.4099
   0.500   0.3810   0.00516   0.00127  -0.0537  0.4774  0.5503  -1.1458   0.0000   0.3844
   1.000   0.4371   0.00538   0.00137  -0.0538  0.4507  0.5522  -1.2117   0.0000   0.3653
   1.500   0.4919   0.00570   0.00154  -0.0538  0.4176  0.5543  -1.2779   0.0000   0.3504
   2.000   0.5462   0.00604   0.00174  -0.0536  0.3878  0.5561  -1.3442   0.0000   0.3384
   2.500   0.6021   0.00632   0.00192  -0.0538  0.3674  0.5579  -1.4163   0.0000   0.3288
   3.000   0.6604   0.00657   0.00210  -0.0546  0.3511  0.5588  -1.4909   0.0000   0.3213
   3.500   0.7210   0.00681   0.00228  -0.0559  0.3366  0.5594  -1.5683   0.0000   0.3155
   4.000   0.7833   0.00707   0.00247  -0.0576  0.3230  0.5599  -1.6476   0.0000   0.3108
   4.500   0.8471   0.00736   0.00269  -0.0598  0.3100  0.5602  -1.7290   0.0000   0.3072
   5.000   0.9217   0.00761   0.00290  -0.0642  0.2998  0.5605  -1.8294   0.0000   0.3057
   5.500   0.9890   0.00795   0.00317  -0.0673  0.2844  0.5608  -1.9296   0.0000   0.3034
   6.000   1.0484   0.00828   0.00343  -0.0686  0.2731  0.5616  -2.0238   0.0000   0.3001
   6.500   1.1075   0.00851   0.00365  -0.0698  0.2655  0.5636  -2.1189   0.0000   0.2969
   7.000   1.1598   0.00888   0.00396  -0.0698  0.2535  0.5659  -2.2083   0.0000   0.2933
   7.500   1.2125   0.00915   0.00423  -0.0698  0.2463  0.5684  -2.2992   0.0000   0.2899
   8.000   1.2596   0.00959   0.00462  -0.0689  0.2337  0.5710  -2.3851   0.0000   0.2862
   8.500   1.3097   0.00992   0.00495  -0.0685  0.2277  0.5732  -2.4882   0.0000   0.2830
   9.000   1.3519   0.01044   0.00543  -0.0668  0.2164  0.5752  -2.5893   0.0000   0.2792
   9.500   1.3979   0.01085   0.00584  -0.0658  0.2112  0.5771  -2.6960   0.0000   0.2761
  10.000   1.4357   0.01151   0.00646  -0.0636  0.2009  0.5787  -2.7936   0.0000   0.2724
  10.500   1.4777   0.01204   0.00700  -0.0622  0.1962  0.5801  -2.8975   0.0000   0.2692
  11.000   1.5116   0.01287   0.00781  -0.0597  0.1888  0.5812  -2.9924   0.0000   0.2657
  11.500   1.5484   0.01365   0.00861  -0.0578  0.1833  0.5820  -3.0957   0.0000   0.2626
  12.000   1.5793   0.01475   0.00972  -0.0555  0.1773  0.5826  -3.1933   0.0000   0.2594
  12.500   1.6052   0.01625   0.01121  -0.0530  0.1692  0.5830  -3.2899   0.0000   0.2562
  13.000   1.6285   0.01822   0.01319  -0.0511  0.1620  0.5859  -3.3929   0.0000   0.2534
  13.500   1.6484   0.02071   0.01571  -0.0494  0.1540  0.5905  -3.4911   0.0000   0.2508
  14.000   1.6672   0.02331   0.01834  -0.0479  0.1491  0.5950  -3.5879   0.0000   0.2484
  14.500   1.6827   0.02624   0.02131  -0.0464  0.1430  0.5984  -3.6842   0.0000   0.2460
  15.000   1.7054   0.02876   0.02390  -0.0456  0.1410  0.6013  -3.7987   0.0000   0.2440
  15.500   1.7133   0.03246   0.02764  -0.0442  0.1357  0.6034  -3.8892   0.0000   0.2417
  16.000   1.7216   0.03615   0.03137  -0.0429  0.1294  0.6050  -3.9812   0.0000   0.2395
  16.500   1.7272   0.04014   0.03538  -0.0416  0.1236  0.6059  -4.0680   0.0000   0.2374
  17.000   1.7327   0.04423   0.03950  -0.0406  0.1174  0.6116  -4.1539   0.0000   0.2354
  17.500   1.7403   0.04817   0.04346  -0.0399  0.1115  0.6187  -4.2440   0.0000   0.2335
  18.000   1.7459   0.05245   0.04780  -0.0393  0.1065  0.6239  -4.3293   0.0000   0.2318
  18.500   1.7531   0.05659   0.05198  -0.0388  0.1023  0.6280  -4.4180   0.0000   0.2300
  19.000   1.7599   0.06086   0.05630  -0.0386  0.0977  0.6350  -4.5053   0.0000   0.2284
  19.500   1.7611   0.06584   0.06135  -0.0385  0.0932  0.6454  -4.5794   0.0000   0.2270
  20.000   1.7680   0.07024   0.06579  -0.0386  0.0880  0.6529  -4.6695   0.0000   0.2255
  20.500   1.7637   0.07596   0.07159  -0.0389  0.0834  0.6687  -4.7339   0.0000   0.2243
  21.000   1.7591   0.08184   0.07755  -0.0394  0.0790  0.6812  -4.7959   0.0000   0.2231
  21.500   1.7505   0.08833   0.08413  -0.0403  0.0747  0.6985  -4.8778   0.0000   0.2222
  22.000   1.7457   0.09448   0.09040  -0.0415  0.0709  0.7258  -5.0223   0.0000   0.2215
  22.500   1.7307   0.10208   0.09815  -0.0433  0.0667  0.7671  -5.1286   0.0000   0.2211
  24.000   1.7074   0.12401   0.12077  -0.0517  0.0574  1.0000  -5.5145   0.0000   0.2216
  24.500   1.6924   0.13180   0.12865  -0.0547  0.0549  1.0000  -5.6121   0.0000   0.2219
  25.000   1.6747   0.13995   0.13688  -0.0580  0.0519  1.0000  -5.6947   0.0000   0.2226
  25.500   1.6606   0.14774   0.14475  -0.0617  0.0495  1.0000  -5.7879   0.0000   0.2234
  26.000   1.6421   0.15623   0.15332  -0.0661  0.0463  1.0000  -5.8569   0.0000   0.2247
  26.500   1.6287   0.16405   0.16122  -0.0705  0.0441  1.0000  -5.9437   0.0000   0.2259
  27.000   1.6117   0.17236   0.16959  -0.0754  0.0409  1.0000  -6.0087   0.0000   0.2277
  27.500   1.6000   0.17993   0.17719  -0.0803  0.0364  1.0000  -6.0957   0.0000   0.2293
  28.000   1.5788   0.18913   0.18644  -0.0864  0.0317  1.0000  -6.1324   0.0000   0.2319
  28.500   1.5533   0.19917   0.19651  -0.0933  0.0264  1.0000  -6.1366   0.0000   0.2353
  29.000   1.5318   0.20868   0.20608  -0.1002  0.0223  1.0000  -6.1517   0.0000   0.2388
  29.500   1.5129   0.21784   0.21528  -0.1072  0.0187  1.0000  -6.1729   0.0000   0.2423
  30.000   1.4960   0.22662   0.22411  -0.1142  0.0154  1.0000  -6.1967   0.0000   0.2458
  30.500   1.4717   0.23694   0.23445  -0.1223  0.0104  1.0000  -6.1610   0.0000   0.2506
  31.000   1.4536   0.24625   0.24381  -0.1299  0.0078  1.0000  -6.1538   0.0000   0.2550
  31.500   1.4448   0.25383   0.25146  -0.1365  0.0069  1.0000  -6.2022   0.0000   0.2581
  32.000   1.4443   0.25966   0.25733  -0.1422  0.0062  1.0000  -6.3084   0.0000   0.2599
  32.500   1.4399   0.26627   0.26401  -0.1484  0.0058  1.0000  -6.3810   0.0000   0.2625
  33.000   1.4360   0.27270   0.27052  -0.1546  0.0056  0.9999  -6.4537   0.0000   0.2649
  33.500   1.4367   0.27814   0.27600  -0.1603  0.0052  0.9999  -6.5617   0.0000   0.2666
  34.000   1.4302   0.28510   0.28303  -0.1670  0.0049  0.9999  -6.6018   0.0000   0.2696
  34.500   1.4253   0.29165   0.28965  -0.1736  0.0046  0.9999  -6.6497   0.0000   0.2723
  35.000   1.4290   0.29612   0.29416  -0.1789  0.0045  0.9999  -6.7803   0.0000   0.2734
  35.500   1.4265   0.30196   0.30007  -0.1852  0.0043  0.9999  -6.8558   0.0000   0.2756
  36.000   1.4290   0.30654   0.30468  -0.1907  0.0041  0.9999  -6.9812   0.0000   0.2767
  36.500   1.4248   0.31262   0.31083  -0.1972  0.0040  0.9999  -7.0326   0.0000   0.2793
  37.000   1.4256   0.31737   0.31562  -0.2030  0.0037  0.9999  -7.1364   0.0000   0.2807
  37.500   1.4199   0.32367   0.32197  -0.2098  0.0034  0.9998  -7.1620   0.0000   0.2835
  38.000   1.4181   0.32890   0.32726  -0.2160  0.0033  0.9998  -7.2415   0.0000   0.2854
  38.500   1.4212   0.33269   0.33109  -0.2214  0.0032  0.9998  -7.3926   0.0000   0.2861
  39.000   1.4198   0.33759   0.33604  -0.2275  0.0031  0.9998  -7.4838   0.0000   0.2878
  39.500   1.4212   0.34153   0.34001  -0.2331  0.0029  0.9998  -7.6148   0.0000   0.2887
  40.000   1.4185   0.34654   0.34507  -0.2393  0.0028  0.9998  -7.6858   0.0000   0.2905
  40.500   1.4188   0.35059   0.34914  -0.2451  0.0026  0.9998  -7.7987   0.0000   0.2915
  41.000   1.4140   0.35595   0.35455  -0.2516  0.0024  0.9998  -7.8307   0.0000   0.2937
  41.500   1.4151   0.35949   0.35811  -0.2571  0.0023  0.9997  -7.9561   0.0000   0.2944
  42.000   1.4141   0.36328   0.36196  -0.2630  0.0022  0.9997  -8.0499   0.0000   0.2954
  42.500   1.4153   0.36600   0.36471  -0.2684  0.0022  0.9997  -8.1809   0.0000   0.2958
  43.000   1.4168   0.36820   0.36694  -0.2738  0.0021  0.9997  -8.3217   0.0000   0.2960
  43.500   1.4145   0.37109   0.36986  -0.2798  0.0020  0.9997  -8.3905   0.0000   0.2972
  44.000   1.4151   0.37294   0.37174  -0.2853  0.0019  0.9997  -8.5185   0.0000   0.2974
  44.500   1.4115   0.37570   0.37453  -0.2914  0.0017  0.9996  -8.5640   0.0000   0.2987
  45.000   1.4100   0.37781   0.37665  -0.2972  0.0015  0.9996  -8.6508   0.0000   0.2993
  45.500   1.4088   0.37976   0.37862  -0.3028  0.0014  0.9996  -8.7528   0.0000   0.2997


