xflr5 v6.33

 Calculated polar for: Bell A821201 v4

 1 1 Reynolds number fixed          Mach number fixed         

 xtrf =   1.000 (top)        1.000 (bottom)
 Mach =   0.000     Re =     3.100 e 6     Ncrit =   9.000

  alpha     CL        CD       CDp       Cm    Top Xtr Bot Xtr   Cpmin    Chinge    XCp    
 ------- -------- --------- --------- -------- ------- ------- -------- --------- ---------
 -25.000  -0.7341   0.17751   0.17575  -0.0386  0.9941  0.0101  -8.0121   0.0000   0.1318
 -24.500  -0.7609   0.16309   0.16116  -0.0487  0.9933  0.0103  -8.4588   0.0000   0.1228
 -24.000  -0.7806   0.15065   0.14857  -0.0574  0.9920  0.0103  -8.7377   0.0000   0.1154
 -23.500  -0.8121   0.13988   0.13767  -0.0616  0.9903  0.0104  -9.0000   0.0000   0.1158
 -23.000  -0.8349   0.12914   0.12679  -0.0673  0.9891  0.0104  -9.1778   0.0000   0.1132
 -22.500  -0.8559   0.11844   0.11594  -0.0734  0.9872  0.0105  -9.3188   0.0000   0.1102
 -22.000  -0.8761   0.10783   0.10518  -0.0795  0.9842  0.0105  -9.4292   0.0000   0.1072
 -21.500  -0.8915   0.09865   0.09586  -0.0842  0.9763  0.0105  -9.4669   0.0000   0.1053
 -21.000  -0.8778   0.08839   0.08475  -0.0956  0.7924  0.0106  -9.3607   0.0000   0.0918
 -20.500  -0.8853   0.08096   0.07713  -0.0991  0.7718  0.0106  -9.3056   0.0000   0.0905
 -20.000  -0.8909   0.07396   0.06994  -0.1022  0.7479  0.0106  -9.2244   0.0000   0.0893
 -19.500  -0.8875   0.06811   0.06367  -0.1051  0.6559  0.0107  -9.0777   0.0000   0.0870
 -19.000  -0.8829   0.06275   0.05814  -0.1072  0.6328  0.0107  -8.9130   0.0000   0.0855
 -18.500  -0.8754   0.05790   0.05315  -0.1087  0.6197  0.0107  -8.7248   0.0000   0.0839
 -18.000  -0.8652   0.05355   0.04868  -0.1098  0.6089  0.0107  -8.5162   0.0000   0.0824
 -17.500  -0.8525   0.04959   0.04462  -0.1106  0.6023  0.0108  -8.2903   0.0000   0.0806
 -17.000  -0.8373   0.04597   0.04089  -0.1112  0.5941  0.0108  -8.0503   0.0000   0.0786
 -16.500  -0.8178   0.04294   0.03778  -0.1115  0.5879  0.0108  -7.7865   0.0000   0.0760
 -16.000  -0.7982   0.03997   0.03475  -0.1115  0.5861  0.0108  -7.5237   0.0000   0.0735
 -15.500  -0.7767   0.03726   0.03198  -0.1114  0.5835  0.0109  -7.2525   0.0000   0.0706
 -15.000  -0.7521   0.03488   0.02953  -0.1112  0.5804  0.0109  -6.9688   0.0000   0.0668
 -14.500  -0.7271   0.03255   0.02713  -0.1109  0.5771  0.0109  -6.6869   0.0000   0.0628
 -14.000  -0.7029   0.03029   0.02480  -0.1104  0.5734  0.0109  -6.4184   0.0000   0.0589
 -13.500  -0.6821   0.02784   0.02226  -0.1097  0.5696  0.0110  -6.1752   0.0000   0.0560
 -13.000  -0.6564   0.02586   0.02021  -0.1089  0.5662  0.0111  -5.9101   0.0000   0.0514
 -12.500  -0.6309   0.02392   0.01822  -0.1080  0.5649  0.0112  -5.6471   0.0000   0.0468
 -12.000  -0.6015   0.02226   0.01652  -0.1071  0.5644  0.0112  -5.3704   0.0000   0.0404
 -11.500  -0.5702   0.02066   0.01488  -0.1064  0.5637  0.0113  -5.0901   0.0000   0.0322
 -11.000  -0.5359   0.01916   0.01335  -0.1059  0.5628  0.0114  -4.8032   0.0000   0.0212
 -10.500  -0.4967   0.01782   0.01199  -0.1060  0.5616  0.0116  -4.5044   0.0000   0.0052
 -10.000  -0.4503   0.01654   0.01068  -0.1073  0.5602  0.0117  -4.1887   0.0000  -0.0206
  -9.500  -0.4030   0.01533   0.00946  -0.1086  0.5586  0.0119  -3.8773   0.0000  -0.0528
  -9.000  -0.3636   0.01418   0.00830  -0.1082  0.5570  0.0122  -3.5959   0.0000  -0.0818
  -8.500  -0.3273   0.01307   0.00717  -0.1070  0.5553  0.0124  -3.3294   0.0000  -0.1122
  -8.000  -0.3000   0.01194   0.00601  -0.1044  0.5535  0.0128  -3.1049   0.0000  -0.1333
  -7.500  -0.2761   0.01128   0.00532  -0.0994  0.5513  0.0131  -2.9048   0.0000  -0.1455
  -7.000  -0.2581   0.01086   0.00487  -0.0925  0.5486  0.0134  -2.7230   0.0000  -0.1434
  -6.500  -0.2299   0.01057   0.00456  -0.0873  0.5449  0.0138  -2.5194   0.0000  -0.1658
  -6.000  -0.1946   0.01019   0.00420  -0.0835  0.5424  0.0158  -2.3185   0.0000  -0.2174
  -5.500  -0.1552   0.00978   0.00383  -0.0804  0.5413  0.0208  -2.1017   0.0000  -0.3108
  -5.000  -0.1190   0.00926   0.00342  -0.0767  0.5398  0.0433  -1.8943   0.0000  -0.4444
  -4.500  -0.0809   0.00876   0.00307  -0.0733  0.5382  0.0757  -1.6849   0.0000  -0.7203
  -4.000  -0.0433   0.00822   0.00272  -0.0698  0.5356  0.1230  -1.4819   0.0000  -1.4644
  -3.500  -0.0101   0.00756   0.00234  -0.0654  0.5325  0.1996  -1.2942   0.0000  -6.6171
  -3.000   0.0194   0.00681   0.00195  -0.0603  0.5295  0.3041  -1.1200   0.0000   3.5198
  -2.500   0.0371   0.00578   0.00148  -0.0527  0.5257  0.4694  -0.9733   0.0000   1.7338
  -2.000   0.0871   0.00565   0.00148  -0.0514  0.5213  0.5211  -0.8696   0.0000   0.8586
  -1.500   0.1423   0.00564   0.00152  -0.0510  0.5204  0.5384  -0.9206   0.0000   0.6144
  -1.000   0.1984   0.00563   0.00151  -0.0508  0.5180  0.5453  -0.9727   0.0000   0.5066
  -0.500   0.2532   0.00566   0.00155  -0.0504  0.5128  0.5539  -1.0243   0.0000   0.4461
   0.000   0.3076   0.00574   0.00158  -0.0500  0.5047  0.5571  -1.0783   0.0000   0.4073
   0.500   0.3640   0.00579   0.00160  -0.0500  0.4992  0.5584  -1.1346   0.0000   0.3806
   1.000   0.4201   0.00586   0.00163  -0.0500  0.4913  0.5594  -1.1996   0.0000   0.3609
   1.500   0.4741   0.00599   0.00171  -0.0495  0.4777  0.5604  -1.2653   0.0000   0.3454
   2.000   0.5259   0.00623   0.00182  -0.0488  0.4522  0.5609  -1.3300   0.0000   0.3327
   2.500   0.5792   0.00654   0.00198  -0.0485  0.4196  0.5635  -1.3984   0.0000   0.3230
   3.000   0.6332   0.00687   0.00218  -0.0485  0.3927  0.5658  -1.4693   0.0000   0.3150
   3.500   0.6891   0.00717   0.00239  -0.0488  0.3721  0.5679  -1.5423   0.0000   0.3086
   4.000   0.7467   0.00747   0.00262  -0.0496  0.3542  0.5698  -1.6174   0.0000   0.3035
   4.500   0.8065   0.00776   0.00286  -0.0509  0.3393  0.5715  -1.6951   0.0000   0.2995
   5.000   0.8674   0.00810   0.00313  -0.0525  0.3243  0.5732  -1.7798   0.0000   0.2962
   5.500   0.9311   0.00840   0.00340  -0.0548  0.3133  0.5746  -1.8758   0.0000   0.2938
   6.000   1.0028   0.00874   0.00369  -0.0588  0.3006  0.5758  -1.9804   0.0000   0.2931
   6.500   1.0683   0.00915   0.00403  -0.0617  0.2857  0.5769  -2.0804   0.0000   0.2914
   7.000   1.1256   0.00949   0.00434  -0.0627  0.2771  0.5781  -2.1740   0.0000   0.2887
   7.500   1.1787   0.00987   0.00469  -0.0629  0.2666  0.5792  -2.2645   0.0000   0.2856
   8.000   1.2278   0.01031   0.00509  -0.0625  0.2564  0.5802  -2.3518   0.0000   0.2823
   8.500   1.2758   0.01073   0.00550  -0.0619  0.2479  0.5812  -2.4485   0.0000   0.2791
   9.000   1.3208   0.01124   0.00598  -0.0608  0.2391  0.5819  -2.5522   0.0000   0.2758
   9.500   1.3635   0.01179   0.00653  -0.0594  0.2305  0.5825  -2.6542   0.0000   0.2724
  10.000   1.4023   0.01248   0.00719  -0.0575  0.2221  0.5830  -2.7522   0.0000   0.2690
  10.500   1.4414   0.01322   0.00793  -0.0560  0.2138  0.5862  -2.8513   0.0000   0.2659
  11.000   1.4750   0.01421   0.00892  -0.0539  0.2061  0.5902  -2.9438   0.0000   0.2626
  11.500   1.5075   0.01534   0.01008  -0.0520  0.1985  0.5937  -3.0400   0.0000   0.2596
  12.000   1.5385   0.01668   0.01146  -0.0503  0.1933  0.5965  -3.1348   0.0000   0.2567
  12.500   1.5605   0.01883   0.01363  -0.0484  0.1847  0.5990  -3.2206   0.0000   0.2539
  13.000   1.5904   0.02068   0.01555  -0.0475  0.1813  0.6013  -3.3305   0.0000   0.2517
  13.500   1.6074   0.02342   0.01830  -0.0459  0.1739  0.6032  -3.4229   0.0000   0.2491
  14.000   1.6252   0.02621   0.02113  -0.0445  0.1674  0.6046  -3.5165   0.0000   0.2468
  14.500   1.6342   0.02981   0.02474  -0.0430  0.1597  0.6056  -3.5975   0.0000   0.2444
  15.000   1.6465   0.03317   0.02815  -0.0418  0.1535  0.6089  -3.6890   0.0000   0.2423
  15.500   1.6559   0.03685   0.03188  -0.0407  0.1487  0.6150  -3.7764   0.0000   0.2402
  16.000   1.6642   0.04071   0.03579  -0.0397  0.1427  0.6201  -3.8658   0.0000   0.2381
  16.500   1.6794   0.04404   0.03921  -0.0391  0.1399  0.6245  -3.9698   0.0000   0.2363
  17.000   1.6870   0.04798   0.04316  -0.0383  0.1329  0.6280  -4.0584   0.0000   0.2344
  18.000   1.7024   0.05625   0.05154  -0.0374  0.1216  0.6433  -4.2350   0.0000   0.2310
  18.500   1.7114   0.06037   0.05571  -0.0372  0.1162  0.6510  -4.3255   0.0000   0.2294
  19.000   1.7095   0.06566   0.06105  -0.0370  0.1097  0.6628  -4.3915   0.0000   0.2279
  19.500   1.7219   0.06959   0.06507  -0.0373  0.1059  0.6755  -4.4886   0.0000   0.2266
  20.000   1.7193   0.07519   0.07076  -0.0376  0.1015  0.6931  -4.5519   0.0000   0.2253
  20.500   1.7190   0.08072   0.07641  -0.0383  0.0970  0.7163  -4.6230   0.0000   0.2243
  21.000   1.7144   0.08689   0.08271  -0.0393  0.0920  0.7513  -4.6820   0.0000   0.2234
  22.500   1.7059   0.10692   0.10345  -0.0457  0.0791  1.0000  -5.0281   0.0000   0.2227
  23.000   1.6911   0.11451   0.11112  -0.0477  0.0753  1.0000  -5.1309   0.0000   0.2226
  23.500   1.6755   0.12234   0.11902  -0.0502  0.0714  1.0000  -5.2275   0.0000   0.2227
  24.000   1.6594   0.13035   0.12712  -0.0531  0.0679  1.0000  -5.3181   0.0000   0.2231
  24.500   1.6425   0.13848   0.13534  -0.0564  0.0643  1.0000  -5.4017   0.0000   0.2238
  25.000   1.6285   0.14633   0.14327  -0.0600  0.0616  1.0000  -5.4933   0.0000   0.2246
  25.500   1.6115   0.15471   0.15173  -0.0642  0.0583  1.0000  -5.5665   0.0000   0.2259
  26.000   1.6049   0.16159   0.15870  -0.0681  0.0565  1.0000  -5.6830   0.0000   0.2267
  26.500   1.5952   0.16887   0.16602  -0.0724  0.0531  1.0000  -5.7818   0.0000   0.2280
  27.000   1.5864   0.17607   0.17331  -0.0770  0.0508  1.0000  -5.8815   0.0000   0.2293
  27.500   1.5723   0.18417   0.18148  -0.0823  0.0478  1.0000  -5.9501   0.0000   0.2313
  28.000   1.5627   0.19158   0.18896  -0.0875  0.0448  1.0000  -6.0409   0.0000   0.2331
  28.500   1.5546   0.19876   0.19616  -0.0928  0.0411  1.0000  -6.1389   0.0000   0.2350
  29.000   1.5416   0.20678   0.20424  -0.0989  0.0377  1.0000  -6.2049   0.0000   0.2375
  29.500   1.5256   0.21538   0.21290  -0.1055  0.0334  1.0000  -6.2455   0.0000   0.2405
  30.000   1.5047   0.22482   0.22235  -0.1129  0.0279  1.0000  -6.2479   0.0000   0.2445
  30.500   1.4872   0.23378   0.23135  -0.1202  0.0234  1.0000  -6.2604   0.0000   0.2483
  31.000   1.4694   0.24294   0.24055  -0.1277  0.0194  1.0000  -6.2600   0.0000   0.2524
  31.500   1.4531   0.25194   0.24958  -0.1353  0.0153  1.0000  -6.2578   0.0000   0.2567
  32.000   1.4320   0.26209   0.25973  -0.1438  0.0102  1.0000  -6.2062   0.0000   0.2620
  32.500   1.4215   0.27012   0.26780  -0.1510  0.0081  1.0000  -6.2236   0.0000   0.2657
  33.000   1.4166   0.27696   0.27469  -0.1576  0.0071  1.0000  -6.2783   0.0000   0.2686
  33.500   1.4102   0.28411   0.28191  -0.1644  0.0066  1.0000  -6.3136   0.0000   0.2718
  34.500   1.4067   0.29614   0.29406  -0.1768  0.0058  1.0000  -6.4532   0.0000   0.2764
  35.000   1.4039   0.30229   0.30029  -0.1832  0.0055  1.0000  -6.5101   0.0000   0.2789
  35.500   1.4039   0.30772   0.30576  -0.1892  0.0053  1.0000  -6.5987   0.0000   0.2808
  36.000   1.4009   0.31377   0.31187  -0.1957  0.0049  1.0000  -6.6510   0.0000   0.2833
  36.500   1.3962   0.32024   0.31839  -0.2024  0.0046  1.0000  -6.6753   0.0000   0.2862
  37.000   1.3999   0.32438   0.32258  -0.2078  0.0045  1.0000  -6.8005   0.0000   0.2871
  37.500   1.3995   0.32941   0.32768  -0.2139  0.0043  1.0000  -6.8803   0.0000   0.2889
  39.000   1.4022   0.34286   0.34124  -0.2312  0.0037  1.0000  -7.2054   0.0000   0.2927
  39.500   1.3995   0.34810   0.34651  -0.2376  0.0034  1.0000  -7.2599   0.0000   0.2948
  40.000   1.4025   0.35154   0.34998  -0.2429  0.0033  1.0000  -7.4043   0.0000   0.2953
  40.500   1.4027   0.35563   0.35413  -0.2487  0.0032  0.9999  -7.5062   0.0000   0.2963
  41.000   1.4047   0.35900   0.35753  -0.2541  0.0031  0.9999  -7.6407   0.0000   0.2968
  41.500   1.4065   0.36227   0.36083  -0.2595  0.0029  0.9999  -7.7732   0.0000   0.2973
  42.000   1.4054   0.36585   0.36445  -0.2654  0.0028  0.9999  -7.8561   0.0000   0.2984
  42.500   1.4065   0.36848   0.36709  -0.2709  0.0026  0.9999  -7.9781   0.0000   0.2989
  43.000   1.4057   0.37126   0.36989  -0.2767  0.0024  0.9999  -8.0650   0.0000   0.2998
  43.500   1.4065   0.37330   0.37196  -0.2822  0.0023  0.9999  -8.1867   0.0000   0.3001
  44.000   1.4077   0.37509   0.37379  -0.2875  0.0022  0.9999  -8.3205   0.0000   0.3002
  44.500   1.4067   0.37728   0.37602  -0.2932  0.0021  0.9998  -8.4119   0.0000   0.3008
  45.000   1.4062   0.37922   0.37799  -0.2988  0.0020  0.9998  -8.5172   0.0000   0.3011
  45.500   1.4057   0.38101   0.37981  -0.3042  0.0019  0.9998  -8.6402   0.0000   0.3012


