xflr5 v6.33

 Calculated polar for: Bell A821201 v4

 1 1 Reynolds number fixed          Mach number fixed         

 xtrf =   1.000 (top)        1.000 (bottom)
 Mach =   0.000     Re =     0.700 e 6     Ncrit =   9.000

  alpha     CL        CD       CDp       Cm    Top Xtr Bot Xtr   Cpmin    Chinge    XCp    
 ------- -------- --------- --------- -------- ------- ------- -------- --------- ---------
 -30.000  -0.3793   0.25607   0.25412   0.0115  1.0000  0.0113  -0.9828   0.0000   0.2342
 -29.500  -0.3706   0.25252   0.25056   0.0090  1.0000  0.0117  -0.9510   0.0000   0.2285
 -29.000  -0.3620   0.24871   0.24675   0.0066  1.0000  0.0122  -0.9427   0.0000   0.2225
 -28.500  -0.3538   0.24462   0.24266   0.0042  1.0000  0.0130  -0.9540   0.0000   0.2161
 -28.000  -0.3520   0.23834   0.23636   0.0011  1.0000  0.0138  -1.1392   0.0000   0.2063
 -27.500  -0.3445   0.23375   0.23178  -0.0011  1.0000  0.0139  -1.1601   0.0000   0.1996
 -27.000  -0.3328   0.23057   0.22860  -0.0030  1.0000  0.0140  -1.0917   0.0000   0.1940
 -26.500  -0.3225   0.22727   0.22530  -0.0050  1.0000  0.0143  -1.0503   0.0000   0.1872
 -26.000  -0.3127   0.22370   0.22174  -0.0071  1.0000  0.0147  -1.0287   0.0000   0.1796
 -25.500  -0.3034   0.21988   0.21793  -0.0093  1.0000  0.0154  -1.0239   0.0000   0.1714
 -24.500  -0.2961   0.20887   0.20691  -0.0147  1.0000  0.0170  -1.2655   0.0000   0.1507
 -24.000  -0.2826   0.20584   0.20389  -0.0161  1.0000  0.0172  -1.1769   0.0000   0.1426
 -23.500  -0.2713   0.20262   0.20069  -0.0179  1.0000  0.0175  -1.1230   0.0000   0.1331
 -23.000  -0.2611   0.19909   0.19717  -0.0197  1.0000  0.0181  -1.1050   0.0000   0.1226
 -22.500  -0.2415   0.19318   0.19125  -0.0254  0.9987  0.0190  -1.1079   0.0000   0.0899
 -20.000  -0.0716   0.14960   0.14633  -0.0850  0.7052  0.0243  -1.3239   0.0000  -1.1232
 -19.500  -0.0556   0.14656   0.14307  -0.0873  0.6721  0.0247  -1.2649   0.0000  -1.5559
 -19.000  -0.0429   0.14295   0.13935  -0.0900  0.6585  0.0256  -1.2536   0.0000  -2.1523
 -18.000  -0.8085   0.07784   0.07370  -0.0814  0.9982  0.0176  -7.1206   0.0000   0.1077
 -17.500  -0.7901   0.06917   0.06480  -0.0900  0.9910  0.0177  -7.0077   0.0000   0.0951
 -17.000  -0.7839   0.06289   0.05835  -0.0925  0.9754  0.0178  -6.8988   0.0000   0.0922
 -16.500  -0.6771   0.05433   0.04880  -0.1168  0.7832  0.0182  -6.4506   0.0000   0.0346
 -16.000  -0.6587   0.05080   0.04492  -0.1179  0.7226  0.0183  -6.2674   0.0000   0.0288
 -15.500  -0.6378   0.04763   0.04138  -0.1187  0.6736  0.0184  -6.0700   0.0000   0.0222
 -15.000  -0.6114   0.04488   0.03841  -0.1195  0.6565  0.0186  -5.8478   0.0000   0.0132
 -14.500  -0.5843   0.04233   0.03572  -0.1199  0.6480  0.0188  -5.6212   0.0000   0.0035
 -14.000  -0.5534   0.03996   0.03321  -0.1207  0.6403  0.0189  -5.3818   0.0000  -0.0094
 -13.500  -0.5183   0.03782   0.03094  -0.1218  0.6335  0.0191  -5.1290   0.0000  -0.0268
 -13.000  -0.4847   0.03575   0.02880  -0.1224  0.6298  0.0194  -4.8820   0.0000  -0.0449
 -12.500  -0.4487   0.03370   0.02667  -0.1235  0.6259  0.0196  -4.6309   0.0000  -0.0685
 -12.000  -0.4132   0.03184   0.02473  -0.1241  0.6221  0.0198  -4.3823   0.0000  -0.0949
 -11.500  -0.3778   0.03008   0.02288  -0.1246  0.6184  0.0201  -4.1365   0.0000  -0.1257
 -11.000  -0.3459   0.02816   0.02088  -0.1250  0.6145  0.0205  -3.9108   0.0000  -0.1584
 -10.500  -0.3155   0.02633   0.01902  -0.1250  0.6112  0.0212  -3.6870   0.0000  -0.1946
 -10.000  -0.2878   0.02471   0.01738  -0.1237  0.6096  0.0219  -3.4694   0.0000  -0.2298
  -9.500  -0.2594   0.02325   0.01591  -0.1222  0.6076  0.0226  -3.2549   0.0000  -0.2731
  -9.000  -0.2317   0.02186   0.01448  -0.1204  0.6051  0.0235  -3.0473   0.0000  -0.3236
  -8.500  -0.2090   0.02035   0.01297  -0.1178  0.6028  0.0250  -2.8690   0.0000  -0.3692
  -8.000  -0.1838   0.01907   0.01167  -0.1151  0.6005  0.0273  -2.7028   0.0000  -0.4348
  -7.500  -0.1646   0.01766   0.01026  -0.1114  0.5983  0.0321  -2.5581   0.0000  -0.4875
  -7.000  -0.1611   0.01581   0.00853  -0.1058  0.5960  0.0505  -2.4511   0.0000  -0.4630
  -6.500  -0.1716   0.01418   0.00701  -0.0968  0.5934  0.0827  -2.3615   0.0000  -0.3623
  -6.000  -0.1739   0.01345   0.00645  -0.0870  0.5899  0.1236  -2.2423   0.0000  -0.2945
  -5.500  -0.1640   0.01244   0.00580  -0.0795  0.5878  0.2030  -2.0945   0.0000  -0.2770
  -5.000  -0.1534   0.01109   0.00498  -0.0718  0.5865  0.3261  -1.9453   0.0000  -0.2589
  -4.500  -0.1415   0.00984   0.00444  -0.0638  0.5843  0.4954  -1.7921   0.0000  -0.2402
  -4.000  -0.0917   0.00995   0.00455  -0.0622  0.5804  0.5330  -1.5599   0.0000  -0.4801
  -3.500  -0.0398   0.01022   0.00478  -0.0609  0.5759  0.5530  -1.3309   0.0000  -1.3815
  -3.000   0.0140   0.01056   0.00508  -0.0600  0.5722  0.5670  -1.1075   0.0000   4.7737
  -2.500   0.0727   0.01136   0.00587  -0.0599  0.5685  0.5810  -0.8840   0.0000   1.1063
  -2.000   0.1296   0.01163   0.00615  -0.0599  0.5641  0.5892  -0.8893   0.0000   0.7242
  -1.500   0.1822   0.01160   0.00612  -0.0589  0.5609  0.5929  -0.9390   0.0000   0.5780
  -1.000   0.2345   0.01158   0.00608  -0.0581  0.5568  0.5964  -0.9889   0.0000   0.4976
  -0.500   0.2872   0.01158   0.00603  -0.0573  0.5529  0.6001  -1.0395   0.0000   0.4467
   0.000   0.3394   0.01150   0.00586  -0.0565  0.5489  0.6020  -1.0930   0.0000   0.4117
   0.500   0.3955   0.01163   0.00589  -0.0567  0.5428  0.6035  -1.1495   0.0000   0.3870
   1.000   0.4419   0.01146   0.00573  -0.0547  0.5392  0.6050  -1.2095   0.0000   0.3660
   1.500   0.4881   0.01128   0.00553  -0.0526  0.5331  0.6059  -1.2698   0.0000   0.3490
   2.000   0.5313   0.01088   0.00506  -0.0501  0.5261  0.6081  -1.3287   0.0000   0.3343
   2.500   0.5775   0.01074   0.00490  -0.0482  0.5193  0.6105  -1.3898   0.0000   0.3226
   3.000   0.6182   0.01055   0.00475  -0.0451  0.5115  0.6123  -1.4502   0.0000   0.3111
   3.500   0.6542   0.01042   0.00457  -0.0410  0.5023  0.6138  -1.5080   0.0000   0.3000
   4.000   0.6953   0.01036   0.00455  -0.0381  0.4904  0.6154  -1.5699   0.0000   0.2913
   4.500   0.7321   0.01044   0.00458  -0.0343  0.4732  0.6170  -1.6287   0.0000   0.2826
   5.000   0.7647   0.01071   0.00474  -0.0300  0.4486  0.6187  -1.6842   0.0000   0.2741
   5.500   0.7947   0.01119   0.00510  -0.0254  0.4239  0.6208  -1.7471   0.0000   0.2660
   6.000   0.8291   0.01173   0.00555  -0.0220  0.4023  0.6227  -1.8149   0.0000   0.2597
   6.500   0.8645   0.01235   0.00609  -0.0190  0.3834  0.6243  -1.8836   0.0000   0.2544
   7.500   0.9447   0.01373   0.00739  -0.0157  0.3515  0.6273  -2.0306   0.0000   0.2475
   8.000   0.9879   0.01456   0.00820  -0.0152  0.3388  0.6285  -2.1070   0.0000   0.2454
   8.500   1.0292   0.01570   0.00930  -0.0150  0.3254  0.6297  -2.1812   0.0000   0.2438
   9.000   1.0913   0.01657   0.01023  -0.0189  0.3143  0.6330  -2.2807   0.0000   0.2458
   9.500   1.1419   0.01799   0.01168  -0.0215  0.3022  0.6360  -2.3841   0.0000   0.2465
  10.000   1.1904   0.01975   0.01348  -0.0244  0.2902  0.6392  -2.4854   0.0000   0.2472
  10.500   1.2351   0.02159   0.01538  -0.0265  0.2802  0.6421  -2.5830   0.0000   0.2473
  11.000   1.2629   0.02426   0.01806  -0.0270  0.2693  0.6449  -2.6591   0.0000   0.2461
  11.500   1.2970   0.02634   0.02023  -0.0276  0.2614  0.6478  -2.7446   0.0000   0.2450
  12.000   1.3164   0.02945   0.02335  -0.0273  0.2522  0.6504  -2.8131   0.0000   0.2433
  12.500   1.3433   0.03195   0.02594  -0.0272  0.2452  0.6527  -2.8937   0.0000   0.2418
  13.000   1.3642   0.03509   0.02913  -0.0274  0.2368  0.6574  -2.9681   0.0000   0.2405
  13.500   1.3856   0.03809   0.03222  -0.0274  0.2294  0.6622  -3.0506   0.0000   0.2390
  14.000   1.4043   0.04131   0.03552  -0.0273  0.2219  0.6671  -3.1353   0.0000   0.2375
  14.500   1.4186   0.04489   0.03915  -0.0270  0.2141  0.6721  -3.2149   0.0000   0.2358
  15.500   1.4491   0.05215   0.04653  -0.0269  0.1993  0.6851  -3.3815   0.0000   0.2330
  16.000   1.4721   0.05519   0.04972  -0.0273  0.1934  0.6944  -3.4845   0.0000   0.2318
  16.500   1.4801   0.05968   0.05426  -0.0275  0.1862  0.7048  -3.5607   0.0000   0.2305
  17.000   1.5005   0.06306   0.05781  -0.0280  0.1806  0.7209  -3.6617   0.0000   0.2294
  17.500   1.5112   0.06759   0.06248  -0.0288  0.1740  0.7450  -3.7475   0.0000   0.2284
  18.000   1.5235   0.07210   0.06724  -0.0298  0.1679  0.7925  -3.8353   0.0000   0.2277
  18.500   1.5531   0.07764   0.07320  -0.0343  0.1611  1.0000  -3.9545   0.0000   0.2289
  19.000   1.5524   0.08339   0.07899  -0.0349  0.1548  1.0000  -4.0141   0.0000   0.2279
  19.500   1.5584   0.08846   0.08416  -0.0358  0.1496  1.0000  -4.0883   0.0000   0.2270
  20.000   1.5519   0.09499   0.09068  -0.0368  0.1429  1.0000  -4.1313   0.0000   0.2263
  20.500   1.5549   0.10063   0.09649  -0.0381  0.1383  1.0000  -4.1953   0.0000   0.2257
  21.000   1.5462   0.10774   0.10365  -0.0399  0.1323  1.0000  -4.2318   0.0000   0.2255
  21.500   1.5441   0.11404   0.11007  -0.0417  0.1275  1.0000  -4.2840   0.0000   0.2253
  22.000   1.5373   0.12105   0.11715  -0.0440  0.1221  1.0000  -4.3221   0.0000   0.2254
  22.500   1.5314   0.12796   0.12414  -0.0466  0.1171  1.0000  -4.3735   0.0000   0.2257
  23.000   1.5261   0.13484   0.13111  -0.0494  0.1121  1.0000  -4.4856   0.0000   0.2261
  23.500   1.5175   0.14216   0.13848  -0.0527  0.1072  1.0000  -4.5828   0.0000   0.2269
  24.000   1.5117   0.14920   0.14564  -0.0562  0.1027  1.0000  -4.6940   0.0000   0.2277
  24.500   1.5062   0.15614   0.15258  -0.0599  0.0977  1.0000  -4.8056   0.0000   0.2287
  25.000   1.5030   0.16287   0.15946  -0.0638  0.0937  1.0000  -4.9240   0.0000   0.2297
  25.500   1.4966   0.16994   0.16652  -0.0680  0.0891  1.0000  -5.0269   0.0000   0.2311
  26.000   1.4936   0.17664   0.17338  -0.0724  0.0855  1.0000  -5.1415   0.0000   0.2324
  26.500   1.4907   0.18323   0.17999  -0.0769  0.0814  1.0000  -5.2559   0.0000   0.2338
  27.000   1.4880   0.18986   0.18673  -0.0817  0.0780  1.0000  -5.3670   0.0000   0.2354
  27.500   1.4879   0.19599   0.19291  -0.0863  0.0746  1.0000  -5.4908   0.0000   0.2367
  28.000   1.4865   0.20230   0.19928  -0.0912  0.0714  1.0000  -5.6054   0.0000   0.2383
  28.500   1.4822   0.20913   0.20623  -0.0967  0.0681  1.0000  -5.7016   0.0000   0.2402
  29.000   1.4828   0.21498   0.21208  -0.1017  0.0646  1.0000  -5.8309   0.0000   0.2417
  29.500   1.4764   0.22213   0.21936  -0.1076  0.0614  1.0000  -5.9157   0.0000   0.2441
  30.000   1.4783   0.22761   0.22483  -0.1127  0.0582  1.0000  -6.0519   0.0000   0.2455
  30.500   1.4704   0.23503   0.23241  -0.1191  0.0550  1.0000  -6.1190   0.0000   0.2483
  31.000   1.4672   0.24148   0.23887  -0.1251  0.0517  1.0000  -6.2153   0.0000   0.2505
  31.500   1.4606   0.24860   0.24610  -0.1315  0.0482  1.0000  -6.2826   0.0000   0.2533
  32.000   1.4535   0.25583   0.25340  -0.1382  0.0446  1.0000  -6.3399   0.0000   0.2563
  32.500   1.4450   0.26333   0.26094  -0.1452  0.0407  1.0000  -6.3808   0.0000   0.2596
  33.000   1.4340   0.27139   0.26904  -0.1526  0.0362  1.0000  -6.3920   0.0000   0.2635
  33.500   1.4200   0.28016   0.27787  -0.1606  0.0309  1.0000  -6.3651   0.0000   0.2680
  34.000   1.4030   0.28971   0.28739  -0.1692  0.0250  1.0000  -6.2961   0.0000   0.2734
  34.500   1.3873   0.29914   0.29680  -0.1777  0.0195  1.0000  -6.2223   0.0000   0.2788
  35.000   1.3769   0.30740   0.30501  -0.1854  0.0156  1.0000  -6.1872   0.0000   0.2833
  36.000   1.3746   0.31906   0.31669  -0.1981  0.0120  1.0000  -6.2916   0.0000   0.2880
  36.500   1.3786   0.32333   0.32093  -0.2037  0.0110  1.0000  -6.4047   0.0000   0.2890
  37.000   1.3811   0.32788   0.32554  -0.2094  0.0103  1.0000  -6.5059   0.0000   0.2903
  37.500   1.3859   0.33159   0.32925  -0.2147  0.0096  1.0000  -6.6425   0.0000   0.2910
  38.000   1.3928   0.33454   0.33218  -0.2197  0.0091  1.0000  -6.8105   0.0000   0.2909
  38.500   1.3949   0.33883   0.33655  -0.2254  0.0086  1.0000  -6.9227   0.0000   0.2921
  39.000   1.3979   0.34262   0.34039  -0.2310  0.0082  1.0000  -7.0506   0.0000   0.2929
  39.500   1.4040   0.34536   0.34312  -0.2360  0.0078  1.0000  -7.2307   0.0000   0.2927
  40.000   1.4114   0.34746   0.34522  -0.2407  0.0074  1.0000  -7.4320   0.0000   0.2921
  40.500   1.4082   0.35268   0.35058  -0.2471  0.0071  1.0000  -7.4657   0.0000   0.2941
  41.000   1.4057   0.35751   0.35550  -0.2535  0.0067  1.0000  -7.5075   0.0000   0.2960
  41.500   1.4074   0.36066   0.35868  -0.2590  0.0064  1.0000  -7.6264   0.0000   0.2966
  42.000   1.4124   0.36248   0.36051  -0.2640  0.0061  1.0000  -7.8070   0.0000   0.2961
  44.500   0.7183   0.46197   0.46095  -0.1719  0.0011  1.0000  -1.0604   0.0000   0.3954
  45.000   0.7164   0.46556   0.46455  -0.1743  0.0009  1.0000  -1.0697   0.0000   0.3968
  45.500   0.7142   0.46783   0.46684  -0.1767  0.0008  1.0000  -1.1094   0.0000   0.3980
  46.000   0.7120   0.46881   0.46783  -0.1791  0.0008  1.0000  -1.1798   0.0000   0.3989
  46.500   0.7085   0.47986   0.47889  -0.1808  0.0006  1.0000  -0.9415   0.0000   0.4011
  47.000   0.7054   0.48354   0.48259  -0.1829  0.0005  1.0000  -0.9399   0.0000   0.4025
  47.500   0.7020   0.48619   0.48525  -0.1850  0.0004  1.0000  -0.9554   0.0000   0.4038
  48.000   0.6983   0.48799   0.48707  -0.1871  0.0003  1.0000  -0.9837   0.0000   0.4051
  48.500   0.6944   0.48883   0.48792  -0.1892  0.0003  1.0000  -1.0278   0.0000   0.4062
  49.500   0.6855   0.49541   0.49453  -0.1928  0.0003  1.0000  -0.9745   0.0000   0.4091
  50.000   0.6811   0.49942   0.49855  -0.1944  0.0002  1.0000  -0.9133   0.0000   0.4104


