xflr5 v6.33

 Calculated polar for: Bell A821201 v4

 1 1 Reynolds number fixed          Mach number fixed         

 xtrf =   1.000 (top)        1.000 (bottom)
 Mach =   0.000     Re =     2.600 e 6     Ncrit =   9.000

  alpha     CL        CD       CDp       Cm    Top Xtr Bot Xtr   Cpmin    Chinge    XCp    
 ------- -------- --------- --------- -------- ------- ------- -------- --------- ---------
 -24.000  -0.7358   0.16319   0.16121  -0.0464  0.9941  0.0106  -7.9950   0.0000   0.1244
 -23.500  -0.7587   0.14953   0.14738  -0.0560  0.9930  0.0107  -8.3320   0.0000   0.1158
 -23.000  -0.7814   0.13842   0.13612  -0.0619  0.9907  0.0107  -8.5486   0.0000   0.1128
 -22.500  -0.8052   0.12756   0.12512  -0.0674  0.9895  0.0107  -8.7328   0.0000   0.1106
 -22.000  -0.8228   0.11724   0.11466  -0.0732  0.9877  0.0108  -8.8447   0.0000   0.1074
 -21.500  -0.8369   0.10732   0.10459  -0.0790  0.9843  0.0108  -8.9076   0.0000   0.1038
 -21.000  -0.8525   0.09825   0.09538  -0.0833  0.9750  0.0108  -8.9457   0.0000   0.1024
 -20.500  -0.8250   0.08823   0.08450  -0.0963  0.7900  0.0108  -8.7702   0.0000   0.0836
 -20.000  -0.8299   0.08099   0.07707  -0.0998  0.7679  0.0109  -8.7021   0.0000   0.0817
 -19.000  -0.8249   0.06875   0.06421  -0.1058  0.6498  0.0109  -8.4417   0.0000   0.0766
 -18.500  -0.8243   0.06296   0.05823  -0.1080  0.6309  0.0109  -8.3228   0.0000   0.0755
 -18.000  -0.8283   0.05703   0.05211  -0.1096  0.6194  0.0110  -8.2360   0.0000   0.0758
 -17.500  -0.8265   0.05197   0.04690  -0.1106  0.6095  0.0111  -8.0999   0.0000   0.0757
 -17.000  -0.8195   0.04761   0.04243  -0.1112  0.6040  0.0112  -7.9248   0.0000   0.0751
 -16.500  -0.8082   0.04382   0.03851  -0.1115  0.5976  0.0112  -7.7217   0.0000   0.0740
 -16.000  -0.7941   0.04035   0.03493  -0.1117  0.5898  0.0113  -7.5004   0.0000   0.0724
 -15.500  -0.7765   0.03736   0.03186  -0.1115  0.5874  0.0114  -7.2584   0.0000   0.0704
 -15.000  -0.7561   0.03469   0.02913  -0.1111  0.5855  0.0115  -7.0023   0.0000   0.0679
 -14.500  -0.7343   0.03216   0.02653  -0.1106  0.5831  0.0115  -6.7411   0.0000   0.0649
 -14.000  -0.7083   0.03005   0.02436  -0.1101  0.5805  0.0116  -6.4615   0.0000   0.0607
 -13.500  -0.6822   0.02795   0.02220  -0.1096  0.5778  0.0117  -6.1841   0.0000   0.0561
 -13.000  -0.6526   0.02619   0.02038  -0.1090  0.5747  0.0118  -5.8949   0.0000   0.0501
 -12.500  -0.6231   0.02444   0.01858  -0.1085  0.5711  0.0119  -5.6102   0.0000   0.0435
 -12.000  -0.5899   0.02293   0.01702  -0.1080  0.5675  0.0120  -5.3153   0.0000   0.0347
 -11.500  -0.5555   0.02140   0.01546  -0.1078  0.5651  0.0121  -5.0215   0.0000   0.0238
 -11.000  -0.5184   0.02004   0.01407  -0.1076  0.5646  0.0122  -4.7232   0.0000   0.0103
 -10.500  -0.4775   0.01867   0.01269  -0.1081  0.5639  0.0124  -4.4190   0.0000  -0.0090
 -10.000  -0.4297   0.01740   0.01140  -0.1097  0.5630  0.0125  -4.1005   0.0000  -0.0390
  -9.500  -0.3888   0.01620   0.01018  -0.1097  0.5617  0.0127  -3.8105   0.0000  -0.0669
  -9.000  -0.3511   0.01503   0.00900  -0.1090  0.5605  0.0129  -3.5373   0.0000  -0.0961
  -8.500  -0.3155   0.01392   0.00787  -0.1078  0.5592  0.0132  -3.2754   0.0000  -0.1281
  -8.000  -0.2842   0.01281   0.00674  -0.1057  0.5578  0.0135  -3.0390   0.0000  -0.1592
  -7.500  -0.2634   0.01185   0.00576  -0.1011  0.5563  0.0137  -2.8526   0.0000  -0.1712
  -7.000  -0.2421   0.01129   0.00517  -0.0952  0.5546  0.0141  -2.6739   0.0000  -0.1805
  -6.500  -0.2257   0.01089   0.00475  -0.0879  0.5523  0.0154  -2.5131   0.0000  -0.1758
  -5.000  -0.1226   0.00956   0.00360  -0.0759  0.5417  0.0578  -1.8998   0.0000  -0.4178
  -4.500  -0.0856   0.00901   0.00323  -0.0724  0.5407  0.0938  -1.6928   0.0000  -0.6559
  -4.000  -0.0503   0.00839   0.00284  -0.0685  0.5391  0.1514  -1.4947   0.0000  -1.1991
  -3.500  -0.0185   0.00766   0.00242  -0.0639  0.5365  0.2371  -1.3095   0.0000  -3.4088
  -3.000   0.0076   0.00675   0.00196  -0.0581  0.5340  0.3620  -1.1415   0.0000   8.2554
  -2.500   0.0344   0.00589   0.00162  -0.0523  0.5314  0.5131  -0.9766   0.0000   1.8395
  -2.000   0.0867   0.00589   0.00164  -0.0513  0.5278  0.5322  -0.8692   0.0000   0.8608
  -1.500   0.1409   0.00599   0.00170  -0.0507  0.5229  0.5432  -0.9195   0.0000   0.6163
  -1.000   0.1947   0.00600   0.00174  -0.0501  0.5205  0.5518  -0.9701   0.0000   0.5077
  -0.500   0.2485   0.00607   0.00181  -0.0494  0.5177  0.5583  -1.0212   0.0000   0.4458
   0.000   0.3036   0.00609   0.00179  -0.0491  0.5119  0.5596  -1.0756   0.0000   0.4064
   0.500   0.3572   0.00616   0.00180  -0.0485  0.5037  0.5603  -1.1301   0.0000   0.3789
   1.000   0.4127   0.00621   0.00184  -0.0483  0.4984  0.5613  -1.1942   0.0000   0.3590
   1.500   0.4698   0.00622   0.00182  -0.0486  0.4884  0.5658  -1.2620   0.0000   0.3444
   2.000   0.5248   0.00634   0.00187  -0.0485  0.4719  0.5684  -1.3290   0.0000   0.3325
   2.500   0.5763   0.00662   0.00201  -0.0478  0.4428  0.5702  -1.3957   0.0000   0.3221
   3.000   0.6271   0.00696   0.00222  -0.0471  0.4122  0.5716  -1.4642   0.0000   0.3134
   3.500   0.6787   0.00733   0.00247  -0.0465  0.3870  0.5730  -1.5337   0.0000   0.3062
   4.000   0.7323   0.00767   0.00272  -0.0465  0.3672  0.5742  -1.6056   0.0000   0.3003
   4.500   0.7875   0.00799   0.00298  -0.0468  0.3507  0.5754  -1.6793   0.0000   0.2956
   5.000   0.8453   0.00829   0.00323  -0.0477  0.3373  0.5768  -1.7598   0.0000   0.2920
   5.500   0.9047   0.00865   0.00353  -0.0491  0.3234  0.5780  -1.8514   0.0000   0.2891
   6.000   0.9664   0.00902   0.00384  -0.0510  0.3106  0.5791  -1.9463   0.0000   0.2870
   6.500   1.0332   0.00936   0.00416  -0.0541  0.2989  0.5800  -2.0471   0.0000   0.2859
   7.000   1.1011   0.00980   0.00454  -0.0576  0.2851  0.5809  -2.1500   0.0000   0.2852
   7.500   1.1583   0.01020   0.00490  -0.0587  0.2758  0.5817  -2.2440   0.0000   0.2828
   8.000   1.2097   0.01064   0.00531  -0.0588  0.2655  0.5823  -2.3332   0.0000   0.2800
   8.500   1.2565   0.01117   0.00581  -0.0581  0.2547  0.5828  -2.4260   0.0000   0.2768
   9.000   1.3046   0.01163   0.00627  -0.0577  0.2473  0.5838  -2.5329   0.0000   0.2739
   9.500   1.3484   0.01224   0.00687  -0.0567  0.2379  0.5870  -2.6357   0.0000   0.2709
  10.000   1.3905   0.01289   0.00753  -0.0556  0.2299  0.5908  -2.7373   0.0000   0.2679
  10.500   1.4260   0.01379   0.00842  -0.0536  0.2210  0.5941  -2.8314   0.0000   0.2646
  11.000   1.4614   0.01476   0.00941  -0.0519  0.2134  0.5966  -2.9258   0.0000   0.2615
  11.500   1.4893   0.01617   0.01083  -0.0496  0.2055  0.5989  -3.0149   0.0000   0.2583
  12.000   1.5180   0.01777   0.01247  -0.0479  0.1985  0.6009  -3.1054   0.0000   0.2555
  12.500   1.5450   0.01977   0.01451  -0.0468  0.1931  0.6027  -3.1974   0.0000   0.2531
  13.000   1.5621   0.02250   0.01726  -0.0451  0.1848  0.6042  -3.2842   0.0000   0.2505
  13.500   1.5884   0.02467   0.01948  -0.0442  0.1813  0.6054  -3.3912   0.0000   0.2483
  14.000   1.6010   0.02794   0.02278  -0.0427  0.1741  0.6071  -3.4750   0.0000   0.2459
  14.500   1.6169   0.03110   0.02600  -0.0418  0.1675  0.6127  -3.5666   0.0000   0.2439
  15.000   1.6244   0.03490   0.02985  -0.0405  0.1604  0.6178  -3.6474   0.0000   0.2417
  15.500   1.6344   0.03858   0.03358  -0.0395  0.1539  0.6220  -3.7352   0.0000   0.2396
  16.000   1.6455   0.04214   0.03718  -0.0385  0.1491  0.6257  -3.8283   0.0000   0.2376
  16.500   1.6509   0.04633   0.04140  -0.0376  0.1427  0.6285  -3.9113   0.0000   0.2357
  17.000   1.6665   0.04974   0.04490  -0.0373  0.1399  0.6349  -4.0153   0.0000   0.2340
  17.500   1.6749   0.05377   0.04897  -0.0368  0.1330  0.6438  -4.1045   0.0000   0.2323
  18.000   1.6839   0.05792   0.05321  -0.0366  0.1282  0.6510  -4.1945   0.0000   0.2307
  18.500   1.6926   0.06205   0.05738  -0.0365  0.1217  0.6630  -4.2838   0.0000   0.2292
  19.000   1.6965   0.06687   0.06228  -0.0366  0.1163  0.6749  -4.3616   0.0000   0.2277
  19.500   1.6947   0.07239   0.06787  -0.0368  0.1101  0.6914  -4.4256   0.0000   0.2265
  20.000   1.7041   0.07676   0.07235  -0.0373  0.1062  0.7148  -4.5145   0.0000   0.2253
  20.500   1.7004   0.08276   0.07849  -0.0381  0.1019  0.7479  -4.5763   0.0000   0.2243
  21.000   1.6985   0.08891   0.08490  -0.0396  0.0971  0.8255  -4.6397   0.0000   0.2237
  21.500   1.6896   0.09523   0.09161  -0.0397  0.0926  0.9989  -4.6882   0.0000   0.2224
  22.000   1.6918   0.10291   0.09937  -0.0443  0.0878  1.0000  -4.8179   0.0000   0.2235
  22.500   1.6821   0.10990   0.10643  -0.0460  0.0840  1.0000  -4.9388   0.0000   0.2232
  23.000   1.6658   0.11775   0.11436  -0.0482  0.0797  1.0000  -5.0332   0.0000   0.2232
  23.500   1.6547   0.12506   0.12176  -0.0507  0.0762  1.0000  -5.1444   0.0000   0.2233
  24.000   1.6367   0.13339   0.13016  -0.0538  0.0720  1.0000  -5.2247   0.0000   0.2239
  24.500   1.6284   0.14037   0.13722  -0.0568  0.0688  1.0000  -5.3413   0.0000   0.2243
  25.000   1.6104   0.14884   0.14577  -0.0607  0.0648  1.0000  -5.4133   0.0000   0.2254
  25.500   1.6003   0.15625   0.15327  -0.0646  0.0624  1.0000  -5.5152   0.0000   0.2264
  26.000   1.5838   0.16467   0.16176  -0.0693  0.0592  1.0000  -5.5835   0.0000   0.2280
  26.500   1.5758   0.17176   0.16894  -0.0736  0.0570  1.0000  -5.6874   0.0000   0.2293
  27.000   1.5709   0.17839   0.17561  -0.0780  0.0539  1.0000  -5.8035   0.0000   0.2304
  27.500   1.5613   0.18583   0.18314  -0.0830  0.0514  1.0000  -5.8920   0.0000   0.2321
  28.000   1.5499   0.19358   0.19096  -0.0885  0.0483  1.0000  -5.9693   0.0000   0.2342
  28.500   1.5420   0.20077   0.19820  -0.0938  0.0452  1.0000  -6.0660   0.0000   0.2361
  29.000   1.5334   0.20809   0.20556  -0.0995  0.0416  1.0000  -6.1543   0.0000   0.2382
  29.500   1.5235   0.21564   0.21317  -0.1055  0.0384  1.0000  -6.2305   0.0000   0.2407
  30.000   1.5098   0.22379   0.22137  -0.1121  0.0342  1.0000  -6.2777   0.0000   0.2437
  30.500   1.4909   0.23298   0.23057  -0.1195  0.0286  1.0000  -6.2826   0.0000   0.2477
  31.000   1.4726   0.24221   0.23983  -0.1272  0.0239  1.0000  -6.2797   0.0000   0.2518
  31.500   1.4607   0.25031   0.24794  -0.1342  0.0196  1.0000  -6.3113   0.0000   0.2553
  32.000   1.4444   0.25937   0.25702  -0.1420  0.0153  1.0000  -6.3000   0.0000   0.2598
  32.500   1.4236   0.26956   0.26722  -0.1506  0.0103  1.0000  -6.2376   0.0000   0.2653
  33.000   1.4117   0.27794   0.27565  -0.1581  0.0083  1.0000  -6.2331   0.0000   0.2694
  33.500   1.4044   0.28532   0.28310  -0.1651  0.0073  1.0000  -6.2575   0.0000   0.2728
  34.000   1.3994   0.29218   0.29002  -0.1718  0.0068  1.0000  -6.2952   0.0000   0.2759
  34.500   1.3946   0.29896   0.29686  -0.1785  0.0063  1.0000  -6.3273   0.0000   0.2789
  35.000   1.3941   0.30463   0.30258  -0.1846  0.0059  1.0000  -6.4019   0.0000   0.2810
  35.500   1.3930   0.31035   0.30837  -0.1908  0.0057  1.0000  -6.4742   0.0000   0.2832
  36.000   1.3949   0.31522   0.31328  -0.1966  0.0054  1.0000  -6.5774   0.0000   0.2846
  36.500   1.3925   0.32110   0.31922  -0.2030  0.0051  1.0000  -6.6273   0.0000   0.2871
  37.000   1.3896   0.32703   0.32520  -0.2095  0.0048  1.0000  -6.6655   0.0000   0.2896
  37.500   1.3913   0.33165   0.32985  -0.2152  0.0045  1.0000  -6.7668   0.0000   0.2909
  38.000   1.3930   0.33607   0.33433  -0.2210  0.0044  1.0000  -6.8731   0.0000   0.2921
  38.500   1.3954   0.34016   0.33847  -0.2265  0.0042  1.0000  -6.9997   0.0000   0.2931
  39.000   1.3981   0.34406   0.34240  -0.2320  0.0040  1.0000  -7.1350   0.0000   0.2939
  39.500   1.3978   0.34863   0.34701  -0.2380  0.0038  1.0000  -7.2239   0.0000   0.2954
  41.500   1.4040   0.36314   0.36165  -0.2603  0.0031  1.0000  -7.7118   0.0000   0.2982
  42.000   1.4038   0.36639   0.36494  -0.2660  0.0030  1.0000  -7.8074   0.0000   0.2991
  42.500   1.4055   0.36880   0.36737  -0.2714  0.0029  1.0000  -7.9399   0.0000   0.2994
  43.000   1.4064   0.37113   0.36973  -0.2769  0.0027  1.0000  -8.0618   0.0000   0.2998
  43.500   1.4052   0.37377   0.37240  -0.2828  0.0025  0.9999  -8.1423   0.0000   0.3007
  44.000   1.4069   0.37544   0.37408  -0.2880  0.0023  0.9999  -8.2844   0.0000   0.3006
  44.500   1.4079   0.37713   0.37579  -0.2934  0.0023  0.9999  -8.4164   0.0000   0.3007
  45.000   1.4058   0.37954   0.37826  -0.2992  0.0022  0.9999  -8.4859   0.0000   0.3014
  45.500   1.4051   0.38143   0.38018  -0.3047  0.0021  0.9999  -8.6040   0.0000   0.3017


