xflr5 v6.33

 Calculated polar for: Bell A821201 v4

 1 1 Reynolds number fixed          Mach number fixed         

 xtrf =   1.000 (top)        1.000 (bottom)
 Mach =   0.000     Re =     1.900 e 6     Ncrit =   9.000

  alpha     CL        CD       CDp       Cm    Top Xtr Bot Xtr   Cpmin    Chinge    XCp    
 ------- -------- --------- --------- -------- ------- ------- -------- --------- ---------
 -23.500  -0.7525   0.16255   0.16038  -0.0387  0.9971  0.0116  -7.8104   0.0000   0.1388
 -23.000  -0.7818   0.14745   0.14507  -0.0493  0.9963  0.0117  -8.2206   0.0000   0.1295
 -22.500  -0.7993   0.13460   0.13204  -0.0587  0.9952  0.0117  -8.4440   0.0000   0.1210
 -22.000  -0.8134   0.12263   0.11990  -0.0674  0.9939  0.0118  -8.5917   0.0000   0.1133
 -21.500  -0.8256   0.11168   0.10878  -0.0750  0.9917  0.0118  -8.6795   0.0000   0.1070
 -21.000  -0.8437   0.10256   0.09953  -0.0786  0.9895  0.0119  -8.7398   0.0000   0.1067
 -20.500  -0.8544   0.09345   0.09026  -0.0836  0.9863  0.0119  -8.7488   0.0000   0.1038
 -20.000  -0.8620   0.08544   0.08212  -0.0875  0.9781  0.0120  -8.7113   0.0000   0.1019
 -19.500  -0.8203   0.07583   0.07167  -0.1024  0.7979  0.0121  -8.4591   0.0000   0.0784
 -19.000  -0.8202   0.06964   0.06526  -0.1050  0.7678  0.0122  -8.3477   0.0000   0.0767
 -18.500  -0.8154   0.06425   0.05956  -0.1072  0.7058  0.0122  -8.1994   0.0000   0.0747
 -18.000  -0.8064   0.05934   0.05433  -0.1092  0.6495  0.0123  -8.0234   0.0000   0.0719
 -17.500  -0.7963   0.05485   0.04967  -0.1106  0.6314  0.0124  -7.8347   0.0000   0.0696
 -17.000  -0.7842   0.05076   0.04545  -0.1115  0.6208  0.0125  -7.6315   0.0000   0.0673
 -16.500  -0.7689   0.04710   0.04166  -0.1122  0.6107  0.0125  -7.4103   0.0000   0.0646
 -16.000  -0.7513   0.04387   0.03835  -0.1124  0.6066  0.0126  -7.1754   0.0000   0.0618
 -15.500  -0.7330   0.04075   0.03512  -0.1126  0.6019  0.0127  -6.9384   0.0000   0.0587
 -15.000  -0.7109   0.03804   0.03232  -0.1126  0.5965  0.0128  -6.6840   0.0000   0.0546
 -14.500  -0.6879   0.03545   0.02964  -0.1126  0.5901  0.0129  -6.4280   0.0000   0.0501
 -14.000  -0.6631   0.03312   0.02724  -0.1123  0.5876  0.0129  -6.1649   0.0000   0.0450
 -13.500  -0.6377   0.03090   0.02497  -0.1118  0.5863  0.0130  -5.9023   0.0000   0.0395
 -13.000  -0.6099   0.02889   0.02291  -0.1114  0.5846  0.0131  -5.6324   0.0000   0.0326
 -12.500  -0.5816   0.02698   0.02095  -0.1109  0.5827  0.0132  -5.3641   0.0000   0.0249
 -12.000  -0.5509   0.02527   0.01919  -0.1104  0.5806  0.0133  -5.0906   0.0000   0.0154
 -11.500  -0.5184   0.02363   0.01750  -0.1101  0.5784  0.0134  -4.8152   0.0000   0.0034
 -11.000  -0.4816   0.02211   0.01593  -0.1103  0.5759  0.0135  -4.5299   0.0000  -0.0135
 -10.500  -0.4384   0.02069   0.01446  -0.1115  0.5730  0.0136  -4.2297   0.0000  -0.0398
 -10.000  -0.3931   0.01936   0.01308  -0.1129  0.5698  0.0137  -3.9298   0.0000  -0.0740
  -9.500  -0.3532   0.01817   0.01185  -0.1129  0.5664  0.0138  -3.6515   0.0000  -0.1078
  -9.000  -0.3217   0.01676   0.01041  -0.1116  0.5649  0.0141  -3.4146   0.0000  -0.1358
  -8.500  -0.2927   0.01543   0.00906  -0.1096  0.5643  0.0148  -3.1853   0.0000  -0.1639
  -8.000  -0.2643   0.01422   0.00784  -0.1071  0.5635  0.0153  -2.9725   0.0000  -0.1957
  -7.500  -0.2423   0.01299   0.00659  -0.1036  0.5626  0.0160  -2.7919   0.0000  -0.2179
  -7.000  -0.2235   0.01220   0.00578  -0.0980  0.5614  0.0167  -2.6192   0.0000  -0.2288
  -6.500  -0.2124   0.01170   0.00528  -0.0899  0.5599  0.0184  -2.4713   0.0000  -0.2120
  -6.000  -0.1843   0.01124   0.00484  -0.0849  0.5582  0.0235  -2.2839   0.0000  -0.2508
  -5.500  -0.1573   0.01061   0.00434  -0.0797  0.5560  0.0484  -2.0991   0.0000  -0.2992
  -5.000  -0.1260   0.01000   0.00388  -0.0752  0.5523  0.0841  -1.9021   0.0000  -0.3944
  -4.500  -0.0944   0.00938   0.00345  -0.0707  0.5470  0.1377  -1.7072   0.0000  -0.5554
  -4.000  -0.0642   0.00864   0.00305  -0.0661  0.5430  0.2254  -1.5204   0.0000  -0.8509
  -3.500  -0.0373   0.00770   0.00253  -0.0606  0.5419  0.3415  -1.3451   0.0000  -1.4757
  -3.000  -0.0132   0.00663   0.00206  -0.0544  0.5403  0.5026  -1.1791   0.0000  -4.1226
  -2.500   0.0391   0.00659   0.00209  -0.0534  0.5380  0.5329  -0.9644   0.0000   1.6788
  -2.000   0.0935   0.00663   0.00212  -0.0528  0.5356  0.5457  -0.8725   0.0000   0.8325
  -1.500   0.1456   0.00669   0.00219  -0.0517  0.5329  0.5546  -0.9218   0.0000   0.6113
  -1.000   0.1951   0.00688   0.00234  -0.0501  0.5295  0.5606  -0.9699   0.0000   0.5069
  -0.500   0.2471   0.00685   0.00226  -0.0491  0.5240  0.5657  -1.0196   0.0000   0.4460
   0.000   0.3005   0.00682   0.00223  -0.0485  0.5200  0.5683  -1.0728   0.0000   0.4063
   0.500   0.3535   0.00679   0.00220  -0.0478  0.5152  0.5708  -1.1270   0.0000   0.3783
   1.000   0.4060   0.00682   0.00220  -0.0469  0.5086  0.5735  -1.1889   0.0000   0.3575
   1.500   0.4582   0.00688   0.00221  -0.0462  0.5007  0.5748  -1.2532   0.0000   0.3415
   2.000   0.5135   0.00691   0.00224  -0.0460  0.4931  0.5763  -1.3203   0.0000   0.3296
   2.500   0.5653   0.00703   0.00229  -0.0453  0.4782  0.5776  -1.3864   0.0000   0.3191
   3.000   0.6153   0.00725   0.00240  -0.0442  0.4535  0.5787  -1.4543   0.0000   0.3101
   3.500   0.6612   0.00764   0.00263  -0.0425  0.4221  0.5797  -1.5194   0.0000   0.3017
   4.000   0.7086   0.00800   0.00289  -0.0411  0.3977  0.5806  -1.5861   0.0000   0.2947
   4.500   0.7573   0.00837   0.00317  -0.0401  0.3774  0.5814  -1.6542   0.0000   0.2889
   5.000   0.8069   0.00876   0.00348  -0.0393  0.3593  0.5822  -1.7250   0.0000   0.2840
   5.500   0.8581   0.00917   0.00381  -0.0390  0.3432  0.5827  -1.8086   0.0000   0.2800
   6.000   0.9134   0.00955   0.00414  -0.0396  0.3302  0.5833  -1.8968   0.0000   0.2773
   6.500   0.9800   0.00990   0.00447  -0.0428  0.3179  0.5857  -1.9963   0.0000   0.2769
   7.000   1.0458   0.01036   0.00488  -0.0460  0.3041  0.5882  -2.0961   0.0000   0.2766
   7.500   1.1176   0.01085   0.00533  -0.0505  0.2907  0.5906  -2.2029   0.0000   0.2771
   8.000   1.1793   0.01128   0.00576  -0.0528  0.2812  0.5927  -2.3014   0.0000   0.2760
   9.500   1.3166   0.01323   0.00766  -0.0513  0.2500  0.5985  -2.5964   0.0000   0.2676
  10.000   1.3593   0.01390   0.00838  -0.0504  0.2439  0.6005  -2.6981   0.0000   0.2648
  10.500   1.3914   0.01505   0.00951  -0.0482  0.2335  0.6024  -2.7868   0.0000   0.2615
  11.000   1.4271   0.01614   0.01064  -0.0469  0.2273  0.6038  -2.8807   0.0000   0.2587
  11.500   1.4512   0.01801   0.01250  -0.0448  0.2175  0.6050  -2.9621   0.0000   0.2556
  12.000   1.4805   0.01991   0.01445  -0.0439  0.2115  0.6059  -3.0517   0.0000   0.2533
  12.500   1.4996   0.02262   0.01718  -0.0426  0.2028  0.6096  -3.1292   0.0000   0.2509
  13.000   1.5249   0.02496   0.01960  -0.0418  0.1976  0.6142  -3.2237   0.0000   0.2488
  13.500   1.5426   0.02794   0.02264  -0.0408  0.1915  0.6181  -3.3137   0.0000   0.2467
  14.000   1.5538   0.03149   0.02624  -0.0396  0.1841  0.6215  -3.3932   0.0000   0.2445
  14.500   1.5734   0.03434   0.02917  -0.0389  0.1798  0.6248  -3.4884   0.0000   0.2425
  15.000   1.5795   0.03830   0.03315  -0.0376  0.1719  0.6274  -3.5634   0.0000   0.2403
  15.500   1.5956   0.04148   0.03638  -0.0369  0.1664  0.6294  -3.6613   0.0000   0.2384
  16.000   1.6026   0.04559   0.04054  -0.0362  0.1592  0.6370  -3.7416   0.0000   0.2365
  16.500   1.6136   0.04942   0.04445  -0.0357  0.1535  0.6440  -3.8343   0.0000   0.2348
  17.000   1.6248   0.05322   0.04829  -0.0353  0.1482  0.6502  -3.9277   0.0000   0.2331
  17.500   1.6306   0.05771   0.05284  -0.0350  0.1424  0.6587  -4.0091   0.0000   0.2315
  18.000   1.6489   0.06100   0.05625  -0.0352  0.1382  0.6713  -4.1174   0.0000   0.2301
  18.500   1.6481   0.06630   0.06160  -0.0351  0.1310  0.6842  -4.1839   0.0000   0.2287
  20.000   1.6650   0.08107   0.07679  -0.0370  0.1151  0.7771  -4.4198   0.0000   0.2254
  20.500   1.6427   0.08638   0.08257  -0.0331  0.1104  0.9964  -4.4435   0.0000   0.2219
  21.000   1.6734   0.09358   0.08987  -0.0415  0.1055  1.0000  -4.5684   0.0000   0.2250
  21.500   1.6603   0.10088   0.09722  -0.0428  0.1007  1.0000  -4.6016   0.0000   0.2245
  22.000   1.6549   0.10735   0.10378  -0.0444  0.0964  1.0000  -4.6863   0.0000   0.2240
  22.500   1.6411   0.11492   0.11143  -0.0464  0.0917  1.0000  -4.7839   0.0000   0.2240
  23.000   1.6287   0.12246   0.11905  -0.0488  0.0877  1.0000  -4.8881   0.0000   0.2241
  23.500   1.6177   0.12988   0.12656  -0.0515  0.0840  1.0000  -4.9955   0.0000   0.2244
  24.000   1.6011   0.13809   0.13485  -0.0548  0.0797  1.0000  -5.0768   0.0000   0.2251
  24.500   1.5902   0.14560   0.14246  -0.0582  0.0762  1.0000  -5.1776   0.0000   0.2259
  25.000   1.5732   0.15408   0.15101  -0.0624  0.0721  1.0000  -5.2483   0.0000   0.2273
  25.500   1.5659   0.16119   0.15820  -0.0664  0.0690  1.0000  -5.3571   0.0000   0.2283
  26.000   1.5530   0.16910   0.16616  -0.0710  0.0651  1.0000  -5.4371   0.0000   0.2299
  26.500   1.5500   0.17554   0.17268  -0.0751  0.0627  1.0000  -5.5597   0.0000   0.2309
  27.000   1.5364   0.18368   0.18089  -0.0804  0.0594  1.0000  -5.6277   0.0000   0.2330
  27.500   1.5366   0.18961   0.18689  -0.0847  0.0569  1.0000  -5.7613   0.0000   0.2340
  28.000   1.5287   0.19687   0.19421  -0.0900  0.0540  1.0000  -5.8505   0.0000   0.2359
  28.500   1.5202   0.20424   0.20166  -0.0956  0.0510  1.0000  -5.9382   0.0000   0.2381
  29.000   1.5134   0.21132   0.20879  -0.1012  0.0479  1.0000  -6.0324   0.0000   0.2401
  29.500   1.5111   0.21757   0.21510  -0.1064  0.0450  1.0000  -6.1505   0.0000   0.2418
  30.000   1.4986   0.22558   0.22315  -0.1130  0.0414  1.0000  -6.2020   0.0000   0.2448
  30.500   1.4959   0.23181   0.22942  -0.1185  0.0378  1.0000  -6.3109   0.0000   0.2467
  31.000   1.4842   0.23975   0.23739  -0.1253  0.0333  1.0000  -6.3552   0.0000   0.2499
  31.500   1.4664   0.24894   0.24659  -0.1331  0.0279  1.0000  -6.3477   0.0000   0.2542
  32.000   1.4500   0.25796   0.25564  -0.1409  0.0231  1.0000  -6.3380   0.0000   0.2586
  32.500   1.4324   0.26738   0.26508  -0.1490  0.0186  1.0000  -6.3043   0.0000   0.2634
  33.000   1.4155   0.27681   0.27452  -0.1573  0.0137  1.0000  -6.2601   0.0000   0.2685
  33.500   1.3994   0.28621   0.28394  -0.1656  0.0100  1.0000  -6.2061   0.0000   0.2736
  34.000   1.3906   0.29403   0.29181  -0.1729  0.0085  1.0000  -6.2031   0.0000   0.2775
  34.500   1.3830   0.30159   0.29942  -0.1801  0.0075  1.0000  -6.1998   0.0000   0.2812
  35.000   1.3828   0.30725   0.30515  -0.1862  0.0071  1.0000  -6.2749   0.0000   0.2833
  35.500   1.3821   0.31294   0.31088  -0.1924  0.0067  1.0000  -6.3437   0.0000   0.2855
  36.000   1.3790   0.31919   0.31717  -0.1989  0.0062  1.0000  -6.3794   0.0000   0.2882
  36.500   1.3810   0.32399   0.32202  -0.2047  0.0059  1.0000  -6.4733   0.0000   0.2897
  37.000   1.3823   0.32884   0.32692  -0.2105  0.0056  1.0000  -6.5595   0.0000   0.2912
  37.500   1.3855   0.33305   0.33117  -0.2161  0.0054  1.0000  -6.6807   0.0000   0.2922
  38.000   1.3863   0.33777   0.33593  -0.2220  0.0051  1.0000  -6.7698   0.0000   0.2937
  38.500   1.3885   0.34196   0.34014  -0.2276  0.0048  1.0000  -6.8888   0.0000   0.2948
  39.000   1.3926   0.34540   0.34360  -0.2330  0.0045  1.0000  -7.0380   0.0000   0.2952
  39.500   1.3942   0.34952   0.34778  -0.2386  0.0044  1.0000  -7.1518   0.0000   0.2963
  40.000   1.3968   0.35312   0.35142  -0.2441  0.0042  1.0000  -7.2843   0.0000   0.2969
  40.500   1.3995   0.35654   0.35488  -0.2495  0.0040  1.0000  -7.4219   0.0000   0.2974
  41.000   1.4000   0.36044   0.35882  -0.2553  0.0038  1.0000  -7.5242   0.0000   0.2984
  41.500   1.4019   0.36355   0.36194  -0.2608  0.0036  1.0000  -7.6546   0.0000   0.2989
  42.000   1.4060   0.36569   0.36407  -0.2659  0.0034  1.0000  -7.8233   0.0000   0.2986
  42.500   1.4070   0.36838   0.36682  -0.2715  0.0033  1.0000  -7.9397   0.0000   0.2992
  43.000   1.4068   0.37103   0.36953  -0.2772  0.0031  1.0000  -8.0361   0.0000   0.2999
  43.500   1.4076   0.37322   0.37175  -0.2828  0.0030  1.0000  -8.1539   0.0000   0.3003
  44.000   1.4066   0.37568   0.37426  -0.2886  0.0029  1.0000  -8.2377   0.0000   0.3010
  49.000   0.6868   0.48720   0.48665  -0.1892  0.0001  1.0000  -1.0409   0.0000   0.4069
  49.500   0.6824   0.48891   0.48836  -0.1911  0.0001  1.0000  -1.0503   0.0000   0.4082
  50.000   0.6777   0.48996   0.48942  -0.1929  0.0001  1.0000  -1.0678   0.0000   0.4095


