xflr5 v6.33

 Calculated polar for: Bell A821201 v4

 1 1 Reynolds number fixed          Mach number fixed         

 xtrf =   1.000 (top)        1.000 (bottom)
 Mach =   0.000     Re =     1.500 e 6     Ncrit =   9.000

  alpha     CL        CD       CDp       Cm    Top Xtr Bot Xtr   Cpmin    Chinge    XCp    
 ------- -------- --------- --------- -------- ------- ------- -------- --------- ---------
 -22.000  -0.7531   0.14084   0.13838  -0.0504  0.9974  0.0127  -7.6138   0.0000   0.1278
 -21.500  -0.7827   0.12537   0.12265  -0.0614  0.9962  0.0128  -7.9555   0.0000   0.1185
 -21.000  -0.7987   0.11249   0.10955  -0.0711  0.9945  0.0128  -8.1219   0.0000   0.1097
 -20.500  -0.8090   0.10141   0.09827  -0.0790  0.9916  0.0129  -8.1944   0.0000   0.1027
 -20.000  -0.8219   0.09257   0.08926  -0.0829  0.9887  0.0130  -8.2179   0.0000   0.1014
 -19.500  -0.8266   0.08409   0.08062  -0.0877  0.9823  0.0130  -8.1848   0.0000   0.0977
 -19.000  -0.7837   0.07413   0.07037  -0.1028  0.9230  0.0132  -7.9522   0.0000   0.0723
 -18.500  -0.7726   0.06833   0.06378  -0.1069  0.7752  0.0132  -7.8018   0.0000   0.0662
 -18.000  -0.7664   0.06314   0.05832  -0.1089  0.7261  0.0133  -7.6573   0.0000   0.0638
 -17.500  -0.7547   0.05855   0.05333  -0.1109  0.6543  0.0134  -7.4794   0.0000   0.0600
 -17.000  -0.7415   0.05436   0.04895  -0.1122  0.6350  0.0134  -7.2869   0.0000   0.0567
 -16.500  -0.7270   0.05055   0.04501  -0.1130  0.6263  0.0135  -7.0829   0.0000   0.0535
 -16.000  -0.7100   0.04703   0.04136  -0.1137  0.6172  0.0136  -6.8660   0.0000   0.0497
 -15.500  -0.6897   0.04399   0.03821  -0.1141  0.6105  0.0136  -6.6310   0.0000   0.0452
 -15.000  -0.6689   0.04109   0.03523  -0.1142  0.6072  0.0137  -6.3936   0.0000   0.0406
 -14.500  -0.6456   0.03847   0.03253  -0.1142  0.6032  0.0137  -6.1454   0.0000   0.0350
 -14.000  -0.6206   0.03604   0.03001  -0.1141  0.5989  0.0138  -5.8921   0.0000   0.0284
 -13.500  -0.5929   0.03383   0.02772  -0.1141  0.5944  0.0138  -5.6298   0.0000   0.0201
 -13.000  -0.5711   0.03128   0.02507  -0.1138  0.5899  0.0139  -5.4111   0.0000   0.0139
 -12.500  -0.5467   0.02897   0.02269  -0.1134  0.5878  0.0140  -5.1797   0.0000   0.0062
 -12.000  -0.5207   0.02685   0.02051  -0.1130  0.5866  0.0142  -4.9407   0.0000  -0.0030
 -11.500  -0.4905   0.02495   0.01857  -0.1129  0.5851  0.0144  -4.6871   0.0000  -0.0161
 -11.000  -0.4544   0.02324   0.01682  -0.1134  0.5834  0.0146  -4.4148   0.0000  -0.0360
 -10.500  -0.4140   0.02166   0.01520  -0.1145  0.5815  0.0148  -4.1319   0.0000  -0.0638
 -10.000  -0.3778   0.02028   0.01379  -0.1142  0.5796  0.0151  -3.8646   0.0000  -0.0904
  -9.500  -0.3428   0.01896   0.01244  -0.1135  0.5775  0.0155  -3.6046   0.0000  -0.1202
  -9.000  -0.3087   0.01774   0.01119  -0.1123  0.5750  0.0159  -3.3518   0.0000  -0.1544
  -8.500  -0.2764   0.01656   0.00997  -0.1107  0.5726  0.0164  -3.1127   0.0000  -0.1924
  -8.000  -0.2453   0.01544   0.00882  -0.1087  0.5699  0.0168  -2.8972   0.0000  -0.2365
  -7.500  -0.2220   0.01416   0.00751  -0.1055  0.5670  0.0181  -2.7310   0.0000  -0.2696
  -7.000  -0.2069   0.01304   0.00636  -0.1004  0.5650  0.0195  -2.5740   0.0000  -0.2788
  -6.500  -0.1931   0.01238   0.00571  -0.0933  0.5643  0.0224  -2.4217   0.0000  -0.2755
  -6.000  -0.1801   0.01181   0.00521  -0.0855  0.5632  0.0358  -2.2715   0.0000  -0.2665
  -5.500  -0.1565   0.01110   0.00468  -0.0799  0.5619  0.0699  -2.0934   0.0000  -0.3036
  -5.000  -0.1273   0.01041   0.00419  -0.0751  0.5594  0.1131  -1.9012   0.0000  -0.3868
  -4.500  -0.1018   0.00953   0.00361  -0.0696  0.5557  0.1900  -1.7200   0.0000  -0.4856
  -4.000  -0.0783   0.00851   0.00302  -0.0636  0.5527  0.3040  -1.5471   0.0000  -0.6210
  -3.500  -0.0577   0.00734   0.00242  -0.0570  0.5502  0.4611  -1.3837   0.0000  -0.8048
  -3.000  -0.0102   0.00722   0.00248  -0.0551  0.5457  0.5274  -1.1697   0.0000  -5.4784
  -2.500   0.0462   0.00735   0.00256  -0.0550  0.5420  0.5414  -0.9482   0.0000   1.4928
  -2.000   0.0977   0.00743   0.00269  -0.0537  0.5403  0.5554  -0.8742   0.0000   0.8166
  -1.500   0.1505   0.00758   0.00281  -0.0527  0.5381  0.5627  -0.9239   0.0000   0.6063
  -1.000   0.2033   0.00759   0.00285  -0.0519  0.5352  0.5707  -0.9740   0.0000   0.5055
  -0.500   0.2562   0.00758   0.00282  -0.0511  0.5318  0.5730  -1.0245   0.0000   0.4465
   0.000   0.3052   0.00756   0.00276  -0.0495  0.5270  0.5751  -1.0752   0.0000   0.4070
   0.500   0.3553   0.00764   0.00279  -0.0482  0.5207  0.5779  -1.1274   0.0000   0.3788
   1.000   0.4046   0.00757   0.00272  -0.0466  0.5160  0.5795  -1.1873   0.0000   0.3572
   1.500   0.4559   0.00754   0.00267  -0.0456  0.5096  0.5804  -1.2510   0.0000   0.3409
   2.000   0.5046   0.00760   0.00266  -0.0441  0.5010  0.5814  -1.3132   0.0000   0.3273
   2.500   0.5581   0.00763   0.00269  -0.0437  0.4928  0.5822  -1.3800   0.0000   0.3172
   3.000   0.6068   0.00775   0.00274  -0.0423  0.4774  0.5827  -1.4469   0.0000   0.3078
   3.500   0.6529   0.00797   0.00284  -0.0405  0.4523  0.5835  -1.5122   0.0000   0.2993
   4.000   0.6981   0.00831   0.00304  -0.0387  0.4221  0.5860  -1.5771   0.0000   0.2921
   4.500   0.7465   0.00867   0.00330  -0.0377  0.3982  0.5882  -1.6447   0.0000   0.2864
   5.000   0.7958   0.00907   0.00362  -0.0370  0.3779  0.5905  -1.7143   0.0000   0.2816
   5.500   0.8465   0.00949   0.00398  -0.0366  0.3598  0.5922  -1.7972   0.0000   0.2777
   6.000   0.8983   0.00996   0.00439  -0.0366  0.3437  0.5938  -1.8817   0.0000   0.2746
   6.500   0.9539   0.01038   0.00478  -0.0375  0.3306  0.5952  -1.9708   0.0000   0.2724
   7.000   1.0125   0.01081   0.00519  -0.0391  0.3188  0.5967  -2.0635   0.0000   0.2710
   7.500   1.0702   0.01139   0.00572  -0.0407  0.3049  0.5983  -2.1560   0.0000   0.2698
   8.000   1.1331   0.01192   0.00624  -0.0435  0.2935  0.5998  -2.2546   0.0000   0.2694
   8.500   1.1938   0.01251   0.00682  -0.0460  0.2828  0.6014  -2.3530   0.0000   0.2688
   9.000   1.2410   0.01330   0.00757  -0.0461  0.2709  0.6029  -2.4569   0.0000   0.2666
   9.500   1.2867   0.01401   0.00830  -0.0459  0.2625  0.6042  -2.5601   0.0000   0.2642
  10.000   1.3224   0.01510   0.00938  -0.0444  0.2525  0.6053  -2.6520   0.0000   0.2612
  10.500   1.3620   0.01611   0.01043  -0.0437  0.2457  0.6069  -2.7492   0.0000   0.2587
  11.000   1.3938   0.01769   0.01203  -0.0426  0.2366  0.6108  -2.8362   0.0000   0.2562
  11.500   1.4253   0.01950   0.01391  -0.0420  0.2291  0.6145  -2.9252   0.0000   0.2541
  12.000   1.4484   0.02195   0.01639  -0.0410  0.2207  0.6177  -3.0048   0.0000   0.2518
  12.500   1.4708   0.02450   0.01900  -0.0400  0.2134  0.6206  -3.0853   0.0000   0.2495
  13.000   1.4878   0.02752   0.02206  -0.0389  0.2060  0.6234  -3.1637   0.0000   0.2473
  13.500   1.5026   0.03079   0.02537  -0.0379  0.1989  0.6259  -3.2458   0.0000   0.2451
  14.000   1.5213   0.03372   0.02837  -0.0371  0.1937  0.6281  -3.3375   0.0000   0.2431
  15.000   1.5478   0.04066   0.03544  -0.0355  0.1814  0.6374  -3.5051   0.0000   0.2392
  15.500   1.5585   0.04445   0.03928  -0.0349  0.1745  0.6431  -3.5897   0.0000   0.2374
  16.000   1.5725   0.04795   0.04285  -0.0344  0.1680  0.6485  -3.6825   0.0000   0.2357
  16.500   1.5838   0.05177   0.04672  -0.0340  0.1619  0.6529  -3.7727   0.0000   0.2340
  17.000   1.5921   0.05603   0.05105  -0.0338  0.1550  0.6636  -3.8582   0.0000   0.2324
  17.500   1.6057   0.05982   0.05492  -0.0338  0.1502  0.6737  -3.9551   0.0000   0.2309
  18.000   1.6055   0.06507   0.06023  -0.0337  0.1434  0.6868  -4.0218   0.0000   0.2295
  18.500   1.6243   0.06848   0.06379  -0.0342  0.1396  0.7058  -4.1297   0.0000   0.2283
  19.000   1.6257   0.07387   0.06930  -0.0347  0.1333  0.7327  -4.1983   0.0000   0.2272
  19.500   1.6327   0.07883   0.07447  -0.0357  0.1280  0.7812  -4.2781   0.0000   0.2263
  20.000   1.6299   0.08365   0.07974  -0.0342  0.1225  0.9978  -4.3403   0.0000   0.2240
  20.500   1.6470   0.09087   0.08704  -0.0402  0.1163  1.0000  -4.4331   0.0000   0.2260
  21.000   1.6377   0.09770   0.09393  -0.0413  0.1113  1.0000  -4.4761   0.0000   0.2253
  21.500   1.6292   0.10458   0.10090  -0.0428  0.1070  1.0000  -4.5185   0.0000   0.2249
  22.000   1.6201   0.11162   0.10803  -0.0446  0.1028  1.0000  -4.5624   0.0000   0.2246
  22.500   1.6023   0.11984   0.11633  -0.0470  0.0978  1.0000  -4.6397   0.0000   0.2249
  23.000   1.5964   0.12663   0.12322  -0.0494  0.0938  1.0000  -4.7612   0.0000   0.2250
  23.500   1.5765   0.13537   0.13203  -0.0527  0.0888  1.0000  -4.8289   0.0000   0.2258
  24.000   1.5763   0.14137   0.13812  -0.0555  0.0855  1.0000  -4.9725   0.0000   0.2260
  24.500   1.5606   0.14966   0.14646  -0.0594  0.0808  1.0000  -5.0495   0.0000   0.2272
  25.000   1.5552   0.15651   0.15341  -0.0630  0.0776  1.0000  -5.1667   0.0000   0.2280
  25.500   1.5398   0.16491   0.16187  -0.0677  0.0734  1.0000  -5.2357   0.0000   0.2298
  26.000   1.5340   0.17181   0.16886  -0.0719  0.0704  1.0000  -5.3449   0.0000   0.2310
  26.500   1.5291   0.17857   0.17567  -0.0763  0.0670  1.0000  -5.4560   0.0000   0.2323
  27.000   1.5218   0.18580   0.18298  -0.0812  0.0640  1.0000  -5.5511   0.0000   0.2340
  27.500   1.5150   0.19294   0.19019  -0.0862  0.0609  1.0000  -5.6461   0.0000   0.2358
  28.000   1.5111   0.19960   0.19689  -0.0912  0.0578  1.0000  -5.7526   0.0000   0.2374
  28.500   1.5074   0.20619   0.20357  -0.0964  0.0550  1.0000  -5.8615   0.0000   0.2391
  29.000   1.4976   0.21386   0.21129  -0.1024  0.0518  1.0000  -5.9352   0.0000   0.2417
  29.500   1.5005   0.21921   0.21670  -0.1072  0.0490  1.0000  -6.0820   0.0000   0.2428
  30.000   1.4913   0.22666   0.22420  -0.1134  0.0459  1.0000  -6.1515   0.0000   0.2454
  30.500   1.4878   0.23308   0.23067  -0.1191  0.0426  1.0000  -6.2534   0.0000   0.2475
  31.000   1.4821   0.23990   0.23754  -0.1252  0.0390  1.0000  -6.3368   0.0000   0.2499
  31.500   1.4706   0.24787   0.24555  -0.1322  0.0348  1.0000  -6.3733   0.0000   0.2533
  32.000   1.4550   0.25673   0.25443  -0.1399  0.0294  1.0000  -6.3711   0.0000   0.2575
  32.500   1.4370   0.26619   0.26390  -0.1481  0.0243  1.0000  -6.3368   0.0000   0.2624
  33.000   1.4210   0.27534   0.27307  -0.1562  0.0195  1.0000  -6.3031   0.0000   0.2672
  33.500   1.4039   0.28491   0.28265  -0.1646  0.0146  1.0000  -6.2425   0.0000   0.2725
  34.000   1.3884   0.29430   0.29205  -0.1729  0.0108  1.0000  -6.1768   0.0000   0.2777
  34.500   1.3795   0.30220   0.29998  -0.1803  0.0091  1.0000  -6.1586   0.0000   0.2818
  35.000   1.3762   0.30868   0.30651  -0.1869  0.0083  1.0000  -6.1983   0.0000   0.2846
  35.500   1.3740   0.31487   0.31272  -0.1934  0.0075  1.0000  -6.2443   0.0000   0.2872
  36.000   1.3753   0.31998   0.31790  -0.1993  0.0072  1.0000  -6.3273   0.0000   0.2889
  36.500   1.3778   0.32465   0.32261  -0.2050  0.0068  1.0000  -6.4256   0.0000   0.2903
  37.000   1.3779   0.32985   0.32783  -0.2111  0.0064  1.0000  -6.4966   0.0000   0.2922
  37.500   1.3817   0.33383   0.33182  -0.2166  0.0059  1.0000  -6.6219   0.0000   0.2930
  38.000   1.3856   0.33777   0.33581  -0.2220  0.0057  1.0000  -6.7504   0.0000   0.2938
  38.500   1.3878   0.34194   0.34004  -0.2276  0.0055  1.0000  -6.8679   0.0000   0.2948
  39.000   1.3913   0.34561   0.34375  -0.2330  0.0053  1.0000  -7.0075   0.0000   0.2955
  39.500   1.3945   0.34923   0.34738  -0.2385  0.0050  1.0000  -7.1454   0.0000   0.2961
  40.000   1.3983   0.35244   0.35059  -0.2438  0.0047  1.0000  -7.2972   0.0000   0.2964
  40.500   1.4016   0.35566   0.35385  -0.2491  0.0045  1.0000  -7.4416   0.0000   0.2967
  41.000   1.4035   0.35918   0.35743  -0.2547  0.0043  1.0000  -7.5656   0.0000   0.2973
  41.500   1.4042   0.36268   0.36099  -0.2603  0.0041  1.0000  -7.6727   0.0000   0.2981
  42.000   1.4052   0.36570   0.36404  -0.2660  0.0039  1.0000  -7.7867   0.0000   0.2988
  42.500   1.4067   0.36820   0.36657  -0.2715  0.0037  1.0000  -7.9140   0.0000   0.2992
  43.000   1.4086   0.37034   0.36872  -0.2769  0.0035  1.0000  -8.0518   0.0000   0.2994
  43.500   1.4129   0.37164   0.37003  -0.2819  0.0033  1.0000  -8.2366   0.0000   0.2987
  44.000   1.4100   0.37471   0.37318  -0.2880  0.0032  1.0000  -8.2798   0.0000   0.3000
  44.500   1.4067   0.37776   0.37631  -0.2941  0.0031  1.0000  -8.3138   0.0000   0.3013
  45.000   1.4041   0.38047   0.37908  -0.3001  0.0029  1.0000  -8.3770   0.0000   0.3023
  50.000   0.6782   0.48810   0.48750  -0.1936  0.0000  1.0000  -1.1363   0.0000   0.4096


