xflr5 v6.33

 Calculated polar for: Bell A821201 v4

 1 1 Reynolds number fixed          Mach number fixed         

 xtrf =   1.000 (top)        1.000 (bottom)
 Mach =   0.000     Re =     3.500 e 6     Ncrit =   9.000

  alpha     CL        CD       CDp       Cm    Top Xtr Bot Xtr   Cpmin    Chinge    XCp    
 ------- -------- --------- --------- -------- ------- ------- -------- --------- ---------
 -25.500  -0.7468   0.18088   0.17918  -0.0375  0.9939  0.0098  -8.2448   0.0000   0.1330
 -25.000  -0.7701   0.16720   0.16535  -0.0473  0.9931  0.0100  -8.6549   0.0000   0.1240
 -24.500  -0.7880   0.15554   0.15356  -0.0553  0.9916  0.0100  -8.9112   0.0000   0.1174
 -24.000  -0.8207   0.14498   0.14287  -0.0592  0.9902  0.0101  -9.1910   0.0000   0.1183
 -23.500  -0.8481   0.13352   0.13126  -0.0654  0.9892  0.0101  -9.4258   0.0000   0.1156
 -23.000  -0.8692   0.12289   0.12049  -0.0715  0.9876  0.0102  -9.5743   0.0000   0.1126
 -22.500  -0.8931   0.11183   0.10928  -0.0779  0.9851  0.0102  -9.7225   0.0000   0.1098
 -22.000  -0.9145   0.10138   0.09867  -0.0837  0.9807  0.0103  -9.8223   0.0000   0.1075
 -21.500  -0.9065   0.09139   0.08789  -0.0938  0.8041  0.0103  -9.7401   0.0000   0.0967
 -21.000  -0.9198   0.08313   0.07940  -0.0978  0.7782  0.0103  -9.7283   0.0000   0.0956
 -20.500  -0.9266   0.07603   0.07213  -0.1010  0.7589  0.0104  -9.6543   0.0000   0.0947
 -20.000  -0.9298   0.06946   0.06523  -0.1040  0.6900  0.0104  -9.5473   0.0000   0.0934
 -19.500  -0.9263   0.06393   0.05945  -0.1063  0.6429  0.0104  -9.3871   0.0000   0.0919
 -19.000  -0.9206   0.05889   0.05426  -0.1080  0.6258  0.0105  -9.2050   0.0000   0.0907
 -18.500  -0.9119   0.05436   0.04959  -0.1092  0.6109  0.0105  -9.0005   0.0000   0.0895
 -18.000  -0.9009   0.05025   0.04538  -0.1100  0.6045  0.0105  -8.7792   0.0000   0.0883
 -17.500  -0.8869   0.04653   0.04155  -0.1106  0.5964  0.0106  -8.5396   0.0000   0.0868
 -17.000  -0.8682   0.04344   0.03837  -0.1109  0.5881  0.0106  -8.2726   0.0000   0.0847
 -16.500  -0.8503   0.04033   0.03519  -0.1109  0.5862  0.0107  -8.0117   0.0000   0.0829
 -16.000  -0.8285   0.03765   0.03245  -0.1108  0.5835  0.0107  -7.7312   0.0000   0.0805
 -15.500  -0.8060   0.03511   0.02984  -0.1106  0.5801  0.0107  -7.4494   0.0000   0.0778
 -15.000  -0.7808   0.03281   0.02747  -0.1103  0.5762  0.0107  -7.1579   0.0000   0.0744
 -14.500  -0.7546   0.03067   0.02526  -0.1099  0.5718  0.0108  -6.8647   0.0000   0.0707
 -14.000  -0.7261   0.02872   0.02326  -0.1095  0.5678  0.0108  -6.5650   0.0000   0.0661
 -13.500  -0.6977   0.02683   0.02132  -0.1090  0.5651  0.0108  -6.2697   0.0000   0.0612
 -13.000  -0.6680   0.02514   0.01961  -0.1082  0.5647  0.0108  -5.9727   0.0000   0.0559
 -12.500  -0.6382   0.02349   0.01793  -0.1074  0.5641  0.0109  -5.6802   0.0000   0.0500
 -12.000  -0.6064   0.02197   0.01638  -0.1067  0.5633  0.0109  -5.3848   0.0000   0.0427
 -11.500  -0.5727   0.02053   0.01492  -0.1060  0.5623  0.0109  -5.0878   0.0000   0.0337
 -11.000  -0.5397   0.01899   0.01334  -0.1054  0.5611  0.0110  -4.8058   0.0000   0.0237
 -10.500  -0.5038   0.01750   0.01182  -0.1052  0.5597  0.0110  -4.5228   0.0000   0.0103
 -10.000  -0.4601   0.01615   0.01042  -0.1061  0.5579  0.0112  -4.2193   0.0000  -0.0122
  -9.500  -0.4090   0.01491   0.00914  -0.1082  0.5559  0.0113  -3.8991   0.0000  -0.0475
  -9.000  -0.3690   0.01373   0.00793  -0.1080  0.5539  0.0115  -3.6187   0.0000  -0.0764
  -8.500  -0.3330   0.01260   0.00677  -0.1069  0.5517  0.0118  -3.3555   0.0000  -0.1055
  -8.000  -0.3086   0.01154   0.00568  -0.1034  0.5491  0.0122  -3.1419   0.0000  -0.1195
  -7.500  -0.2835   0.01097   0.00510  -0.0984  0.5465  0.0126  -2.9361   0.0000  -0.1315
  -7.000  -0.2687   0.01062   0.00473  -0.0907  0.5436  0.0129  -2.7598   0.0000  -0.1211
  -6.500  -0.2344   0.01027   0.00438  -0.0867  0.5424  0.0135  -2.5407   0.0000  -0.1550
  -6.000  -0.1953   0.00991   0.00403  -0.0835  0.5416  0.0146  -2.3220   0.0000  -0.2157
  -5.500  -0.1548   0.00953   0.00368  -0.0806  0.5398  0.0182  -2.1029   0.0000  -0.3135
  -5.000  -0.1166   0.00907   0.00332  -0.0772  0.5381  0.0365  -1.8907   0.0000  -0.4629
  -4.500  -0.0780   0.00858   0.00297  -0.0739  0.5359  0.0664  -1.6802   0.0000  -0.7644
  -4.000  -0.0389   0.00811   0.00265  -0.0707  0.5325  0.1057  -1.4738   0.0000  -1.6835
  -3.500  -0.0034   0.00755   0.00231  -0.0667  0.5290  0.1698  -1.2816   0.0000  -20.7593
  -3.000   0.0282   0.00690   0.00197  -0.0619  0.5251  0.2621  -1.1038   0.0000   2.5568
  -2.500   0.0475   0.00597   0.00154  -0.0547  0.5213  0.4086  -0.9548   0.0000   1.4507
  -2.000   0.0883   0.00543   0.00137  -0.0516  0.5206  0.5162  -0.8704   0.0000   0.8528
  -1.500   0.1442   0.00540   0.00139  -0.0514  0.5191  0.5356  -0.9219   0.0000   0.6123
  -1.000   0.2011   0.00545   0.00141  -0.0514  0.5152  0.5398  -0.9744   0.0000   0.5057
  -0.500   0.2564   0.00545   0.00141  -0.0511  0.5082  0.5499  -1.0264   0.0000   0.4464
   0.000   0.3114   0.00554   0.00147  -0.0508  0.5006  0.5551  -1.0808   0.0000   0.4080
   0.500   0.3689   0.00557   0.00149  -0.0510  0.4957  0.5565  -1.1378   0.0000   0.3817
   1.000   0.4244   0.00569   0.00153  -0.0509  0.4826  0.5579  -1.2027   0.0000   0.3621
   1.500   0.4789   0.00586   0.00162  -0.0507  0.4638  0.5593  -1.2688   0.0000   0.3468
   2.000   0.5307   0.00614   0.00177  -0.0499  0.4352  0.5602  -1.3334   0.0000   0.3341
   2.500   0.5811   0.00652   0.00199  -0.0490  0.4030  0.5607  -1.4000   0.0000   0.3236
   3.000   0.6341   0.00681   0.00218  -0.0487  0.3811  0.5609  -1.4702   0.0000   0.3152
   3.500   0.6924   0.00709   0.00237  -0.0495  0.3618  0.5630  -1.5452   0.0000   0.3093
   4.000   0.7525   0.00739   0.00259  -0.0509  0.3439  0.5652  -1.6223   0.0000   0.3047
   4.500   0.8154   0.00767   0.00281  -0.0528  0.3305  0.5673  -1.7026   0.0000   0.3012
   5.000   0.8811   0.00792   0.00304  -0.0554  0.3191  0.5697  -1.7924   0.0000   0.2987
   5.500   0.9496   0.00827   0.00332  -0.0588  0.3049  0.5716  -1.8929   0.0000   0.2970
   6.000   1.0234   0.00864   0.00363  -0.0633  0.2908  0.5731  -1.9996   0.0000   0.2964
   6.500   1.0837   0.00894   0.00391  -0.0649  0.2809  0.5746  -2.0953   0.0000   0.2937
   7.000   1.1368   0.00934   0.00425  -0.0651  0.2688  0.5759  -2.1851   0.0000   0.2903
   7.500   1.1901   0.00964   0.00455  -0.0653  0.2616  0.5772  -2.2762   0.0000   0.2871
   8.000   1.2383   0.01009   0.00495  -0.0646  0.2497  0.5784  -2.3627   0.0000   0.2836
   8.500   1.2868   0.01047   0.00532  -0.0640  0.2431  0.5796  -2.4613   0.0000   0.2804
   9.000   1.3302   0.01101   0.00582  -0.0626  0.2323  0.5806  -2.5633   0.0000   0.2768
   9.500   1.3743   0.01150   0.00631  -0.0614  0.2257  0.5815  -2.6673   0.0000   0.2736
  10.000   1.4125   0.01219   0.00697  -0.0594  0.2155  0.5823  -2.7649   0.0000   0.2700
  10.500   1.4512   0.01288   0.00766  -0.0576  0.2094  0.5828  -2.8638   0.0000   0.2668
  11.000   1.4833   0.01387   0.00863  -0.0552  0.1997  0.5846  -2.9549   0.0000   0.2633
  11.500   1.5203   0.01477   0.00957  -0.0537  0.1953  0.5884  -3.0576   0.0000   0.2604
  12.000   1.5466   0.01627   0.01108  -0.0513  0.1876  0.5923  -3.1464   0.0000   0.2572
  12.500   1.5779   0.01775   0.01262  -0.0500  0.1828  0.5956  -3.2479   0.0000   0.2547
  13.000   1.6026   0.01990   0.01480  -0.0487  0.1767  0.5985  -3.3506   0.0000   0.2522
  13.500   1.6212   0.02252   0.01745  -0.0471  0.1688  0.6009  -3.4458   0.0000   0.2497
  14.000   1.6375   0.02536   0.02031  -0.0455  0.1621  0.6030  -3.5375   0.0000   0.2473
  14.500   1.6489   0.02871   0.02368  -0.0440  0.1545  0.6045  -3.6239   0.0000   0.2449
  15.000   1.6597   0.03221   0.02722  -0.0427  0.1500  0.6056  -3.7135   0.0000   0.2427
  15.500   1.6667   0.03602   0.03106  -0.0413  0.1436  0.6084  -3.7974   0.0000   0.2405
  16.000   1.6844   0.03911   0.03424  -0.0407  0.1411  0.6153  -3.9065   0.0000   0.2386
  16.500   1.6945   0.04276   0.03794  -0.0398  0.1355  0.6207  -4.0009   0.0000   0.2366
  17.000   1.7020   0.04676   0.04198  -0.0391  0.1294  0.6251  -4.0898   0.0000   0.2347
  17.500   1.7077   0.05098   0.04625  -0.0384  0.1240  0.6285  -4.1747   0.0000   0.2329
  18.000   1.7184   0.05477   0.05007  -0.0379  0.1175  0.6363  -4.2697   0.0000   0.2312
  18.500   1.7197   0.05965   0.05500  -0.0376  0.1118  0.6455  -4.3441   0.0000   0.2296
  19.000   1.7263   0.06401   0.05942  -0.0375  0.1068  0.6526  -4.4296   0.0000   0.2281
  19.500   1.7326   0.06857   0.06405  -0.0376  0.1028  0.6680  -4.5135   0.0000   0.2267
  20.000   1.7306   0.07405   0.06961  -0.0378  0.0978  0.6801  -4.5793   0.0000   0.2254
  20.500   1.7321   0.07929   0.07495  -0.0384  0.0934  0.6985  -4.6557   0.0000   0.2242
  21.000   1.7315   0.08487   0.08063  -0.0392  0.0883  0.7261  -4.7254   0.0000   0.2232
  21.500   1.7276   0.09102   0.08696  -0.0405  0.0844  0.7715  -4.7977   0.0000   0.2225
  22.500   1.7172   0.10555   0.10209  -0.0457  0.0760  1.0000  -5.0708   0.0000   0.2226
  23.000   1.7012   0.11326   0.10987  -0.0476  0.0718  1.0000  -5.1702   0.0000   0.2224
  23.500   1.6862   0.12097   0.11766  -0.0500  0.0684  1.0000  -5.2703   0.0000   0.2224
  24.000   1.6682   0.12921   0.12598  -0.0529  0.0646  1.0000  -5.3545   0.0000   0.2228
  24.500   1.6537   0.13700   0.13386  -0.0560  0.0618  1.0000  -5.4493   0.0000   0.2234
  25.000   1.6354   0.14541   0.14235  -0.0598  0.0585  1.0000  -5.5237   0.0000   0.2243
  25.500   1.6292   0.15217   0.14920  -0.0632  0.0568  1.0000  -5.6465   0.0000   0.2249
  26.000   1.6190   0.15952   0.15660  -0.0672  0.0536  1.0000  -5.7487   0.0000   0.2259
  26.500   1.6079   0.16701   0.16418  -0.0716  0.0511  1.0000  -5.8433   0.0000   0.2272
  27.000   1.5934   0.17505   0.17229  -0.0766  0.0483  1.0000  -5.9170   0.0000   0.2289
  27.500   1.5812   0.18279   0.18011  -0.0816  0.0455  1.0000  -5.9968   0.0000   0.2306
  28.000   1.5685   0.19069   0.18804  -0.0871  0.0415  1.0000  -6.0735   0.0000   0.2327
  28.500   1.5610   0.19775   0.19515  -0.0923  0.0383  1.0000  -6.1762   0.0000   0.2344
  29.000   1.5446   0.20634   0.20380  -0.0987  0.0343  1.0000  -6.2233   0.0000   0.2372
  29.500   1.5215   0.21617   0.21365  -0.1060  0.0287  1.0000  -6.2221   0.0000   0.2411
  30.000   1.5019   0.22540   0.22292  -0.1133  0.0241  1.0000  -6.2311   0.0000   0.2449
  30.500   1.4852   0.23422   0.23177  -0.1205  0.0202  1.0000  -6.2487   0.0000   0.2486
  31.000   1.4667   0.24354   0.24114  -0.1282  0.0163  1.0000  -6.2424   0.0000   0.2529
  31.500   1.4454   0.25360   0.25121  -0.1364  0.0113  1.0000  -6.2024   0.0000   0.2580
  32.000   1.4301   0.26258   0.26023  -0.1442  0.0084  1.0000  -6.1928   0.0000   0.2624
  32.500   1.4270   0.26904   0.26673  -0.1503  0.0072  1.0000  -6.2699   0.0000   0.2648
  33.000   1.4205   0.27618   0.27393  -0.1571  0.0066  1.0000  -6.3139   0.0000   0.2679
  33.500   1.4131   0.28354   0.28136  -0.1640  0.0060  1.0000  -6.3408   0.0000   0.2713
  34.000   1.4161   0.28845   0.28633  -0.1695  0.0058  1.0000  -6.4594   0.0000   0.2726
  34.500   1.4132   0.29466   0.29260  -0.1758  0.0055  1.0000  -6.5203   0.0000   0.2751
  35.000   1.4093   0.30102   0.29904  -0.1824  0.0052  1.0000  -6.5692   0.0000   0.2778
  35.500   1.4089   0.30654   0.30459  -0.1884  0.0049  1.0000  -6.6559   0.0000   0.2797
  36.000   1.4043   0.31296   0.31108  -0.1951  0.0046  1.0000  -6.6916   0.0000   0.2826
  36.500   1.4050   0.31792   0.31610  -0.2010  0.0044  1.0000  -6.7863   0.0000   0.2841
  37.000   1.4067   0.32251   0.32073  -0.2066  0.0043  1.0000  -6.8910   0.0000   0.2854
  37.500   1.4056   0.32773   0.32601  -0.2128  0.0041  1.0000  -6.9653   0.0000   0.2873
  38.000   1.4070   0.33215   0.33047  -0.2184  0.0039  1.0000  -7.0773   0.0000   0.2885
  38.500   1.4040   0.33765   0.33601  -0.2248  0.0037  1.0000  -7.1385   0.0000   0.2907
  39.000   1.4036   0.34240   0.34079  -0.2308  0.0034  0.9999  -7.2311   0.0000   0.2922
  39.500   1.4034   0.34685   0.34530  -0.2367  0.0033  0.9999  -7.3291   0.0000   0.2936
  40.000   1.4064   0.35027   0.34875  -0.2420  0.0032  0.9999  -7.4762   0.0000   0.2941
  40.500   1.4068   0.35431   0.35283  -0.2477  0.0031  0.9999  -7.5841   0.0000   0.2951
  41.000   1.4076   0.35807   0.35663  -0.2533  0.0029  0.9999  -7.6996   0.0000   0.2959
  41.500   1.4088   0.36151   0.36010  -0.2589  0.0028  0.9999  -7.8249   0.0000   0.2965
  42.000   1.4065   0.36553   0.36414  -0.2649  0.0026  0.9999  -7.8880   0.0000   0.2980
  42.500   1.4072   0.36825   0.36688  -0.2705  0.0024  0.9999  -8.0026   0.0000   0.2985
  43.000   1.4075   0.37075   0.36941  -0.2761  0.0023  0.9998  -8.1108   0.0000   0.2991
  43.500   1.4077   0.37293   0.37163  -0.2817  0.0022  0.9998  -8.2239   0.0000   0.2996
  44.000   1.4089   0.37469   0.37342  -0.2871  0.0021  0.9998  -8.3587   0.0000   0.2997
  44.500   1.4073   0.37702   0.37579  -0.2929  0.0020  0.9998  -8.4382   0.0000   0.3004
  45.000   1.4073   0.37880   0.37760  -0.2983  0.0019  0.9998  -8.5563   0.0000   0.3006
  45.500   1.4063   0.38074   0.37957  -0.3039  0.0018  0.9998  -8.6656   0.0000   0.3009


