xflr5 v6.33

 Calculated polar for: Bell A821201 v4

 1 1 Reynolds number fixed          Mach number fixed         

 xtrf =   1.000 (top)        1.000 (bottom)
 Mach =   0.000     Re =     1.700 e 6     Ncrit =   9.000

  alpha     CL        CD       CDp       Cm    Top Xtr Bot Xtr   Cpmin    Chinge    XCp    
 ------- -------- --------- --------- -------- ------- ------- -------- --------- ---------
 -27.500  -0.3489   0.23350   0.23224   0.0014  1.0000  0.0086  -1.2044   0.0000   0.2072
 -27.000  -0.3392   0.23023   0.22898  -0.0008  1.0000  0.0088  -1.1640   0.0000   0.2009
 -26.500  -0.3202   0.22467   0.22340  -0.0064  0.9993  0.0091  -1.1290   0.0000   0.1819
 -26.000  -0.2954   0.21756   0.21627  -0.0144  0.9977  0.0097  -1.1083   0.0000   0.1510
 -25.500  -0.2795   0.20908   0.20776  -0.0213  0.9950  0.0108  -1.2654   0.0000   0.1201
 -25.000  -0.2776   0.20394   0.20262  -0.0228  0.9872  0.0109  -1.3831   0.0000   0.1135
 -23.000  -0.7026   0.16514   0.16307  -0.0373  0.9971  0.0121  -7.1062   0.0000   0.1369
 -22.500  -0.7659   0.14410   0.14170  -0.0502  0.9967  0.0121  -7.9075   0.0000   0.1280
 -22.000  -0.7896   0.12991   0.12729  -0.0604  0.9955  0.0122  -8.1940   0.0000   0.1191
 -21.500  -0.8055   0.11747   0.11465  -0.0695  0.9940  0.0122  -8.3563   0.0000   0.1111
 -21.000  -0.8182   0.10643   0.10343  -0.0770  0.9915  0.0123  -8.4428   0.0000   0.1050
 -20.500  -0.8331   0.09750   0.09435  -0.0808  0.9889  0.0124  -8.4801   0.0000   0.1041
 -20.000  -0.8413   0.08862   0.08531  -0.0858  0.9848  0.0124  -8.4703   0.0000   0.1008
 -19.500  -0.8525   0.08154   0.07810  -0.0875  0.9704  0.0125  -8.4353   0.0000   0.1020
 -19.000  -0.7974   0.07197   0.06763  -0.1046  0.7844  0.0126  -8.1327   0.0000   0.0727
 -18.500  -0.7947   0.06624   0.06167  -0.1069  0.7540  0.0127  -8.0064   0.0000   0.0708
 -18.000  -0.7864   0.06124   0.05625  -0.1091  0.6663  0.0128  -7.8437   0.0000   0.0678
 -17.500  -0.7761   0.05665   0.05145  -0.1107  0.6410  0.0129  -7.6631   0.0000   0.0651
 -17.000  -0.7635   0.05256   0.04722  -0.1117  0.6280  0.0129  -7.4655   0.0000   0.0625
 -16.500  -0.7480   0.04885   0.04337  -0.1125  0.6179  0.0130  -7.2509   0.0000   0.0594
 -16.000  -0.7316   0.04539   0.03980  -0.1130  0.6102  0.0131  -7.0300   0.0000   0.0563
 -15.500  -0.7138   0.04221   0.03653  -0.1132  0.6065  0.0132  -6.8010   0.0000   0.0530
 -15.000  -0.6919   0.03946   0.03369  -0.1132  0.6021  0.0132  -6.5532   0.0000   0.0487
 -14.500  -0.6702   0.03674   0.03087  -0.1132  0.5973  0.0133  -6.3083   0.0000   0.0441
 -14.000  -0.6441   0.03443   0.02847  -0.1131  0.5915  0.0134  -6.0452   0.0000   0.0378
 -13.500  -0.6188   0.03209   0.02606  -0.1130  0.5880  0.0135  -5.7886   0.0000   0.0314
 -13.000  -0.5906   0.03009   0.02401  -0.1125  0.5869  0.0135  -5.5213   0.0000   0.0237
 -12.500  -0.5627   0.02808   0.02195  -0.1122  0.5854  0.0136  -5.2590   0.0000   0.0153
 -12.000  -0.5317   0.02635   0.02018  -0.1118  0.5837  0.0137  -4.9881   0.0000   0.0045
 -11.500  -0.4997   0.02464   0.01842  -0.1115  0.5818  0.0137  -4.7184   0.0000  -0.0086
 -11.000  -0.4630   0.02312   0.01686  -0.1117  0.5797  0.0138  -4.4369   0.0000  -0.0271
 -10.500  -0.4246   0.02137   0.01505  -0.1128  0.5775  0.0139  -4.1665   0.0000  -0.0521
 -10.000  -0.3869   0.01979   0.01341  -0.1133  0.5752  0.0142  -3.9044   0.0000  -0.0800
  -9.500  -0.3525   0.01838   0.01196  -0.1127  0.5723  0.0146  -3.6514   0.0000  -0.1078
  -9.000  -0.3180   0.01712   0.01066  -0.1117  0.5690  0.0151  -3.3976   0.0000  -0.1405
  -8.500  -0.2842   0.01597   0.00949  -0.1104  0.5661  0.0156  -3.1500   0.0000  -0.1789
  -8.000  -0.2545   0.01481   0.00831  -0.1081  0.5648  0.0161  -2.9349   0.0000  -0.2167
  -7.500  -0.2297   0.01363   0.00712  -0.1049  0.5642  0.0167  -2.7506   0.0000  -0.2494
  -7.000  -0.2167   0.01257   0.00603  -0.0990  0.5634  0.0180  -2.6032   0.0000  -0.2482
  -6.500  -0.2032   0.01202   0.00548  -0.0915  0.5622  0.0199  -2.4464   0.0000  -0.2406
  -6.000  -0.1823   0.01151   0.00501  -0.0852  0.5607  0.0281  -2.2779   0.0000  -0.2581
  -5.500  -0.1575   0.01083   0.00449  -0.0796  0.5589  0.0591  -2.0978   0.0000  -0.2985
  -5.000  -0.1265   0.01019   0.00402  -0.0751  0.5558  0.0970  -1.9014   0.0000  -0.3913
  -4.500  -0.0973   0.00945   0.00352  -0.0702  0.5517  0.1578  -1.7119   0.0000  -0.5263
  -4.000  -0.0703   0.00860   0.00302  -0.0649  0.5483  0.2548  -1.5317   0.0000  -0.7384
  -3.500  -0.0469   0.00756   0.00249  -0.0589  0.5444  0.3965  -1.3635   0.0000  -1.0889
  -3.000  -0.0109   0.00693   0.00228  -0.0550  0.5419  0.5179  -1.1731   0.0000  -5.0897
  -2.000   0.0947   0.00697   0.00237  -0.0531  0.5380  0.5508  -0.8729   0.0000   0.8281
  -1.500   0.1482   0.00709   0.00247  -0.0523  0.5353  0.5584  -0.9230   0.0000   0.6086
  -1.000   0.2000   0.00714   0.00251  -0.0512  0.5324  0.5666  -0.9724   0.0000   0.5062
  -0.500   0.2500   0.00712   0.00246  -0.0498  0.5283  0.5695  -1.0212   0.0000   0.4462
   0.000   0.3026   0.00720   0.00248  -0.0490  0.5214  0.5714  -1.0738   0.0000   0.4068
   0.500   0.3525   0.00715   0.00245  -0.0476  0.5182  0.5742  -1.1261   0.0000   0.3781
   1.000   0.4049   0.00714   0.00243  -0.0467  0.5123  0.5764  -1.1879   0.0000   0.3572
   1.500   0.4561   0.00716   0.00240  -0.0457  0.5048  0.5776  -1.2514   0.0000   0.3410
   2.000   0.5094   0.00721   0.00242  -0.0452  0.4977  0.5789  -1.3171   0.0000   0.3285
   2.500   0.5609   0.00729   0.00245  -0.0443  0.4850  0.5800  -1.3827   0.0000   0.3180
   3.000   0.6106   0.00746   0.00253  -0.0432  0.4651  0.5809  -1.4504   0.0000   0.3089
   3.500   0.6568   0.00776   0.00271  -0.0414  0.4372  0.5816  -1.5157   0.0000   0.3004
   4.000   0.7004   0.00818   0.00298  -0.0393  0.4086  0.5823  -1.5793   0.0000   0.2927
   4.500   0.7460   0.00859   0.00329  -0.0376  0.3858  0.5828  -1.6448   0.0000   0.2863
   5.000   0.7966   0.00897   0.00358  -0.0371  0.3669  0.5843  -1.7155   0.0000   0.2818
   5.500   0.8538   0.00932   0.00388  -0.0382  0.3506  0.5869  -1.8043   0.0000   0.2792
   6.000   0.9129   0.00967   0.00420  -0.0396  0.3372  0.5890  -1.8958   0.0000   0.2773
   6.500   0.9718   0.01012   0.00461  -0.0412  0.3230  0.5910  -1.9880   0.0000   0.2756
   7.000   1.0327   0.01058   0.00503  -0.0433  0.3106  0.5928  -2.0832   0.0000   0.2745
   7.500   1.0965   0.01103   0.00547  -0.0461  0.2987  0.5946  -2.1822   0.0000   0.2739
   8.000   1.1612   0.01161   0.00600  -0.0493  0.2856  0.5962  -2.2828   0.0000   0.2736
   8.500   1.2149   0.01215   0.00654  -0.0502  0.2761  0.5979  -2.3773   0.0000   0.2716
   9.000   1.2618   0.01280   0.00718  -0.0499  0.2656  0.5996  -2.4815   0.0000   0.2691
   9.500   1.3042   0.01356   0.00793  -0.0490  0.2564  0.6013  -2.5814   0.0000   0.2662
  10.000   1.3436   0.01441   0.00880  -0.0478  0.2481  0.6031  -2.6784   0.0000   0.2633
  10.500   1.3795   0.01546   0.00986  -0.0463  0.2401  0.6045  -2.7717   0.0000   0.2603
  11.000   1.4098   0.01689   0.01130  -0.0446  0.2313  0.6055  -2.8578   0.0000   0.2573
  11.500   1.4401   0.01858   0.01302  -0.0434  0.2238  0.6074  -2.9466   0.0000   0.2548
  12.000   1.4644   0.02096   0.01544  -0.0425  0.2151  0.6116  -3.0280   0.0000   0.2526
  12.500   1.4896   0.02327   0.01781  -0.0416  0.2084  0.6156  -3.1140   0.0000   0.2504
  13.000   1.5031   0.02649   0.02107  -0.0402  0.1998  0.6189  -3.1884   0.0000   0.2480
  13.500   1.5267   0.02908   0.02375  -0.0396  0.1955  0.6221  -3.2867   0.0000   0.2461
  14.000   1.5379   0.03262   0.02732  -0.0384  0.1886  0.6251  -3.3658   0.0000   0.2439
  14.500   1.5520   0.03590   0.03067  -0.0375  0.1829  0.6275  -3.4501   0.0000   0.2418
  15.000   1.5664   0.03925   0.03406  -0.0366  0.1771  0.6294  -3.5395   0.0000   0.2398
  15.500   1.5740   0.04325   0.03812  -0.0358  0.1693  0.6364  -3.6195   0.0000   0.2379
  16.000   1.5919   0.04642   0.04137  -0.0355  0.1640  0.6431  -3.7205   0.0000   0.2362
  16.500   1.5954   0.05092   0.04589  -0.0348  0.1559  0.6487  -3.7967   0.0000   0.2344
  17.500   1.6169   0.05891   0.05402  -0.0344  0.1456  0.6663  -3.9795   0.0000   0.2312
  18.000   1.6311   0.06260   0.05781  -0.0345  0.1411  0.6765  -4.0784   0.0000   0.2298
  18.500   1.6394   0.06708   0.06239  -0.0347  0.1357  0.6940  -4.1640   0.0000   0.2285
  19.000   1.6417   0.07229   0.06771  -0.0351  0.1295  0.7156  -4.2355   0.0000   0.2273
  19.500   1.6526   0.07664   0.07222  -0.0359  0.1242  0.7516  -4.3258   0.0000   0.2263
  20.000   1.6513   0.08268   0.07851  -0.0371  0.1180  0.8265  -4.3858   0.0000   0.2256
  20.500   1.6619   0.08922   0.08542  -0.0404  0.1127  1.0000  -4.4712   0.0000   0.2260
  21.000   1.6524   0.09603   0.09229  -0.0415  0.1077  1.0000  -4.5144   0.0000   0.2253
  21.500   1.6481   0.10233   0.09868  -0.0428  0.1041  1.0000  -4.5688   0.0000   0.2246
  22.000   1.6288   0.11063   0.10704  -0.0447  0.0987  1.0000  -4.5938   0.0000   0.2246
  22.500   1.6256   0.11688   0.11340  -0.0466  0.0951  1.0000  -4.7253   0.0000   0.2243
  23.000   1.6066   0.12536   0.12195  -0.0493  0.0901  1.0000  -4.8021   0.0000   0.2247
  23.500   1.6042   0.13163   0.12831  -0.0518  0.0866  1.0000  -4.9407   0.0000   0.2248
  24.000   1.5895   0.13962   0.13637  -0.0551  0.0824  1.0000  -5.0283   0.0000   0.2255
  24.500   1.5783   0.14722   0.14406  -0.0587  0.0786  1.0000  -5.1260   0.0000   0.2264
  25.000   1.5649   0.15520   0.15212  -0.0627  0.0747  1.0000  -5.2107   0.0000   0.2276
  25.500   1.5533   0.16299   0.15999  -0.0670  0.0712  1.0000  -5.2986   0.0000   0.2290
  26.000   1.5461   0.17006   0.16713  -0.0712  0.0679  1.0000  -5.4036   0.0000   0.2302
  26.500   1.5380   0.17732   0.17444  -0.0758  0.0645  1.0000  -5.5003   0.0000   0.2317
  27.000   1.5319   0.18429   0.18149  -0.0806  0.0618  1.0000  -5.6040   0.0000   0.2332
  27.500   1.5184   0.19252   0.18978  -0.0862  0.0583  1.0000  -5.6652   0.0000   0.2356
  28.000   1.5228   0.19775   0.19509  -0.0904  0.0560  1.0000  -5.8173   0.0000   0.2364
  28.500   1.5104   0.20583   0.20321  -0.0964  0.0526  1.0000  -5.8803   0.0000   0.2390
  29.000   1.5084   0.21209   0.20956  -0.1015  0.0500  1.0000  -6.0013   0.0000   0.2406
  29.500   1.5022   0.21904   0.21654  -0.1072  0.0466  1.0000  -6.0944   0.0000   0.2427
  30.000   1.4980   0.22558   0.22315  -0.1128  0.0438  1.0000  -6.1963   0.0000   0.2447
  30.500   1.4924   0.23236   0.22996  -0.1188  0.0403  1.0000  -6.2859   0.0000   0.2470
  31.000   1.4822   0.24002   0.23766  -0.1254  0.0362  1.0000  -6.3396   0.0000   0.2500
  31.500   1.4693   0.24825   0.24592  -0.1326  0.0314  1.0000  -6.3669   0.0000   0.2536
  32.000   1.4518   0.25749   0.25517  -0.1405  0.0260  1.0000  -6.3499   0.0000   0.2581
  32.500   1.4344   0.26685   0.26456  -0.1486  0.0213  1.0000  -6.3184   0.0000   0.2630
  33.000   1.4183   0.27608   0.27381  -0.1567  0.0165  1.0000  -6.2823   0.0000   0.2678
  33.500   1.4006   0.28584   0.28357  -0.1653  0.0117  1.0000  -6.2148   0.0000   0.2733
  34.500   1.3823   0.30162   0.29943  -0.1801  0.0083  1.0000  -6.1909   0.0000   0.2813
  35.000   1.3768   0.30867   0.30653  -0.1870  0.0075  1.0000  -6.2065   0.0000   0.2846
  35.500   1.3791   0.31362   0.31153  -0.1927  0.0071  1.0000  -6.3067   0.0000   0.2861
  36.000   1.3779   0.31937   0.31733  -0.1990  0.0067  1.0000  -6.3640   0.0000   0.2884
  36.500   1.3786   0.32457   0.32255  -0.2050  0.0063  1.0000  -6.4407   0.0000   0.2902
  37.000   1.3795   0.32954   0.32757  -0.2109  0.0059  1.0000  -6.5191   0.0000   0.2919
  37.500   1.3833   0.33358   0.33166  -0.2164  0.0057  1.0000  -6.6466   0.0000   0.2927
  38.000   1.3855   0.33791   0.33603  -0.2221  0.0054  1.0000  -6.7539   0.0000   0.2939
  38.500   1.3881   0.34197   0.34013  -0.2276  0.0052  1.0000  -6.8780   0.0000   0.2948
  39.000   1.3912   0.34577   0.34393  -0.2331  0.0049  1.0000  -7.0134   0.0000   0.2956
  39.500   1.3961   0.34889   0.34706  -0.2383  0.0046  1.0000  -7.1766   0.0000   0.2957
  40.000   1.3971   0.35294   0.35117  -0.2440  0.0044  1.0000  -7.2836   0.0000   0.2968
  40.500   1.3998   0.35637   0.35465  -0.2495  0.0043  1.0000  -7.4188   0.0000   0.2973
  41.000   1.4015   0.35991   0.35824  -0.2550  0.0041  1.0000  -7.5415   0.0000   0.2979
  41.500   1.4024   0.36333   0.36169  -0.2607  0.0039  1.0000  -7.6533   0.0000   0.2987
  42.000   1.4044   0.36603   0.36441  -0.2662  0.0037  1.0000  -7.7859   0.0000   0.2991
  42.500   1.4078   0.36802   0.36640  -0.2713  0.0034  1.0000  -7.9480   0.0000   0.2989
  43.000   1.4094   0.37027   0.36868  -0.2768  0.0033  1.0000  -8.0762   0.0000   0.2992
  43.500   1.4086   0.37291   0.37139  -0.2826  0.0032  1.0000  -8.1615   0.0000   0.3000
  44.000   1.4082   0.37529   0.37383  -0.2883  0.0030  1.0000  -8.2573   0.0000   0.3006
  44.500   1.4063   0.37787   0.37646  -0.2942  0.0029  1.0000  -8.3236   0.0000   0.3015
  45.000   1.4057   0.37994   0.37856  -0.2998  0.0027  1.0000  -8.4322   0.0000   0.3018
  45.500   1.4038   0.38241   0.38106  -0.3056  0.0026  1.0000  -8.5203   0.0000   0.3025


