xflr5 v6.33

 Calculated polar for: Bell A821201 v4

 1 1 Reynolds number fixed          Mach number fixed         

 xtrf =   1.000 (top)        1.000 (bottom)
 Mach =   0.000     Re =     2.400 e 6     Ncrit =   9.000

  alpha     CL        CD       CDp       Cm    Top Xtr Bot Xtr   Cpmin    Chinge    XCp    
 ------- -------- --------- --------- -------- ------- ------- -------- --------- ---------
 -24.000  -0.6362   0.18364   0.18195  -0.0354  0.9938  0.0107  -6.5713   0.0000   0.1277
 -23.500  -0.5738   0.18928   0.18773  -0.0334  0.9900  0.0108  -5.6707   0.0000   0.1238
 -23.000  -0.5336   0.18939   0.18790  -0.0350  0.9863  0.0108  -5.1472   0.0000   0.1158
 -22.500  -0.4828   0.18666   0.18517  -0.0419  0.9553  0.0108  -4.6629   0.0000   0.0917
 -22.000  -0.4363   0.18280   0.18045  -0.0494  0.7728  0.0109  -4.2839   0.0000   0.0620
 -21.500  -0.8139   0.11128   0.10858  -0.0764  0.9862  0.0109  -8.6472   0.0000   0.1036
 -21.000  -0.8243   0.10207   0.09923  -0.0816  0.9800  0.0109  -8.6673   0.0000   0.1002
 -20.500  -0.8129   0.08963   0.08597  -0.0958  0.8140  0.0110  -8.6516   0.0000   0.0821
 -20.000  -0.8313   0.08088   0.07690  -0.0998  0.7806  0.0111  -8.7117   0.0000   0.0820
 -19.500  -0.8423   0.07332   0.06911  -0.1030  0.7577  0.0111  -8.6923   0.0000   0.0817
 -19.000  -0.8458   0.06684   0.06222  -0.1059  0.6753  0.0112  -8.6090   0.0000   0.0804
 -18.500  -0.8461   0.06097   0.05611  -0.1081  0.6430  0.0113  -8.4917   0.0000   0.0794
 -18.000  -0.8426   0.05579   0.05078  -0.1096  0.6275  0.0114  -8.3407   0.0000   0.0785
 -17.500  -0.8346   0.05130   0.04613  -0.1106  0.6142  0.0114  -8.1573   0.0000   0.0773
 -17.000  -0.8229   0.04738   0.04210  -0.1112  0.6078  0.0115  -7.9474   0.0000   0.0758
 -16.500  -0.8084   0.04386   0.03849  -0.1115  0.6021  0.0116  -7.7200   0.0000   0.0741
 -16.000  -0.7919   0.04058   0.03510  -0.1117  0.5954  0.0117  -7.4813   0.0000   0.0719
 -15.500  -0.7708   0.03781   0.03224  -0.1117  0.5883  0.0117  -7.2196   0.0000   0.0689
 -15.000  -0.7497   0.03516   0.02953  -0.1114  0.5870  0.0118  -6.9577   0.0000   0.0660
 -14.500  -0.7258   0.03279   0.02711  -0.1110  0.5851  0.0119  -6.6845   0.0000   0.0624
 -14.000  -0.7003   0.03060   0.02487  -0.1105  0.5829  0.0120  -6.4069   0.0000   0.0581
 -13.500  -0.6726   0.02861   0.02282  -0.1100  0.5805  0.0120  -6.1228   0.0000   0.0528
 -13.000  -0.6440   0.02673   0.02089  -0.1095  0.5779  0.0121  -5.8391   0.0000   0.0468
 -12.500  -0.6136   0.02505   0.01915  -0.1089  0.5749  0.0122  -5.5520   0.0000   0.0397
 -12.000  -0.5817   0.02344   0.01749  -0.1085  0.5714  0.0123  -5.2644   0.0000   0.0309
 -11.500  -0.5466   0.02194   0.01595  -0.1084  0.5679  0.0124  -4.9706   0.0000   0.0192
 -11.000  -0.5075   0.02054   0.01451  -0.1087  0.5651  0.0126  -4.6692   0.0000   0.0029
 -10.500  -0.4658   0.01914   0.01309  -0.1095  0.5646  0.0127  -4.3658   0.0000  -0.0184
 -10.000  -0.4194   0.01789   0.01181  -0.1108  0.5639  0.0129  -4.0545   0.0000  -0.0486
  -9.500  -0.3809   0.01665   0.01056  -0.1104  0.5630  0.0130  -3.7748   0.0000  -0.0752
  -9.000  -0.3441   0.01547   0.00936  -0.1096  0.5619  0.0132  -3.5064   0.0000  -0.1046
  -8.500  -0.3090   0.01435   0.00823  -0.1082  0.5607  0.0135  -3.2470   0.0000  -0.1376
  -8.000  -0.2769   0.01326   0.00712  -0.1062  0.5594  0.0137  -3.0074   0.0000  -0.1721
  -7.500  -0.2575   0.01214   0.00597  -0.1019  0.5580  0.0140  -2.8325   0.0000  -0.1838
  -7.000  -0.2393   0.01147   0.00527  -0.0956  0.5565  0.0150  -2.6719   0.0000  -0.1871
  -6.500  -0.2228   0.01108   0.00488  -0.0883  0.5546  0.0161  -2.5023   0.0000  -0.1830
  -6.000  -0.1894   0.01069   0.00449  -0.0841  0.5520  0.0186  -2.3000   0.0000  -0.2335
  -5.500  -0.1567   0.01024   0.00409  -0.0799  0.5473  0.0322  -2.1010   0.0000  -0.3027
  -5.000  -0.1236   0.00972   0.00370  -0.0757  0.5424  0.0634  -1.9007   0.0000  -0.4111
  -4.500  -0.0872   0.00915   0.00331  -0.0721  0.5416  0.1020  -1.6951   0.0000  -0.6361
  -4.000  -0.0537   0.00847   0.00289  -0.0678  0.5404  0.1665  -1.5009   0.0000  -1.0970
  -3.500  -0.0238   0.00766   0.00244  -0.0629  0.5382  0.2613  -1.3197   0.0000  -2.5507
  -3.000  -0.0004   0.00664   0.00192  -0.0566  0.5357  0.4034  -1.1567   0.0000  -141.0685
  -2.500   0.0360   0.00605   0.00172  -0.0526  0.5333  0.5185  -0.9728   0.0000   1.7796
  -1.500   0.1406   0.00610   0.00177  -0.0507  0.5262  0.5469  -0.9193   0.0000   0.6166
  -1.000   0.1939   0.00622   0.00188  -0.0499  0.5212  0.5544  -0.9695   0.0000   0.5079
  -0.500   0.2467   0.00629   0.00194  -0.0490  0.5192  0.5596  -1.0199   0.0000   0.4456
   0.000   0.3018   0.00629   0.00192  -0.0487  0.5145  0.5604  -1.0743   0.0000   0.4061
   0.500   0.3555   0.00633   0.00191  -0.0481  0.5074  0.5609  -1.1289   0.0000   0.3785
   1.000   0.4114   0.00632   0.00187  -0.0481  0.5002  0.5657  -1.1931   0.0000   0.3589
   1.500   0.4679   0.00634   0.00189  -0.0482  0.4930  0.5689  -1.2605   0.0000   0.3440
   2.000   0.5218   0.00645   0.00194  -0.0479  0.4787  0.5708  -1.3267   0.0000   0.3317
   2.500   0.5742   0.00666   0.00205  -0.0473  0.4545  0.5722  -1.3940   0.0000   0.3215
   3.000   0.6234   0.00703   0.00226  -0.0462  0.4220  0.5735  -1.4612   0.0000   0.3124
   3.500   0.6744   0.00737   0.00249  -0.0455  0.3965  0.5747  -1.5303   0.0000   0.3051
   4.000   0.7265   0.00772   0.00274  -0.0451  0.3759  0.5759  -1.6009   0.0000   0.2990
   4.500   0.7798   0.00806   0.00301  -0.0451  0.3577  0.5771  -1.6729   0.0000   0.2939
   5.000   0.8349   0.00842   0.00330  -0.0454  0.3419  0.5784  -1.7503   0.0000   0.2899
   5.500   0.8924   0.00879   0.00361  -0.0464  0.3274  0.5795  -1.8401   0.0000   0.2868
   6.000   0.9535   0.00911   0.00389  -0.0482  0.3166  0.5804  -1.9343   0.0000   0.2847
   6.500   1.0150   0.00951   0.00424  -0.0502  0.3035  0.5812  -2.0298   0.0000   0.2829
   7.000   1.0835   0.00998   0.00464  -0.0539  0.2887  0.5819  -2.1329   0.0000   0.2825
   7.500   1.1461   0.01034   0.00499  -0.0562  0.2803  0.5825  -2.2318   0.0000   0.2811
   8.000   1.1977   0.01087   0.00547  -0.0564  0.2679  0.5829  -2.3208   0.0000   0.2784
   8.500   1.2506   0.01129   0.00589  -0.0569  0.2595  0.5846  -2.4192   0.0000   0.2760
   9.000   1.2976   0.01186   0.00644  -0.0565  0.2493  0.5877  -2.5244   0.0000   0.2732
   9.500   1.3440   0.01239   0.00699  -0.0560  0.2422  0.5909  -2.6301   0.0000   0.2704
  10.000   1.3822   0.01318   0.00777  -0.0542  0.2321  0.5940  -2.7267   0.0000   0.2671
  10.500   1.4208   0.01397   0.00859  -0.0528  0.2253  0.5966  -2.8247   0.0000   0.2641
  11.000   1.4511   0.01518   0.00979  -0.0505  0.2155  0.5988  -2.9122   0.0000   0.2607
  11.500   1.4832   0.01644   0.01108  -0.0488  0.2095  0.6007  -3.0065   0.0000   0.2578
  12.000   1.5052   0.01851   0.01314  -0.0466  0.1998  0.6025  -3.0870   0.0000   0.2548
  12.500   1.5356   0.02034   0.01504  -0.0458  0.1960  0.6040  -3.1834   0.0000   0.2526
  13.000   1.5541   0.02300   0.01772  -0.0443  0.1890  0.6052  -3.2712   0.0000   0.2501
  13.500   1.5741   0.02565   0.02041  -0.0430  0.1832  0.6062  -3.3672   0.0000   0.2478
  14.000   1.5943   0.02844   0.02327  -0.0422  0.1778  0.6116  -3.4634   0.0000   0.2457
  14.500   1.6023   0.03223   0.02710  -0.0409  0.1694  0.6166  -3.5402   0.0000   0.2435
  15.000   1.6171   0.03546   0.03041  -0.0400  0.1642  0.6208  -3.6336   0.0000   0.2414
  15.500   1.6214   0.03960   0.03456  -0.0387  0.1558  0.6244  -3.7104   0.0000   0.2393
  16.000   1.6346   0.04304   0.03807  -0.0380  0.1517  0.6275  -3.8063   0.0000   0.2374
  17.500   1.6692   0.05424   0.04945  -0.0365  0.1364  0.6476  -4.0921   0.0000   0.2321
  19.000   1.6866   0.06781   0.06320  -0.0362  0.1183  0.6810  -4.3390   0.0000   0.2276
  19.500   1.6889   0.07295   0.06844  -0.0366  0.1133  0.6985  -4.4120   0.0000   0.2264
  20.000   1.6898   0.07828   0.07388  -0.0372  0.1077  0.7242  -4.4805   0.0000   0.2253
  20.500   1.6948   0.08342   0.07921  -0.0382  0.1042  0.7703  -4.5616   0.0000   0.2244
  21.000   1.6621   0.08856   0.08485  -0.0325  0.1003  0.9951  -4.5657   0.0000   0.2199
  21.500   1.6946   0.09683   0.09321  -0.0428  0.0945  1.0000  -4.6917   0.0000   0.2241
  22.000   1.6779   0.10459   0.10103  -0.0444  0.0890  1.0000  -4.7683   0.0000   0.2238
  22.500   1.6726   0.11106   0.10760  -0.0461  0.0862  1.0000  -4.9028   0.0000   0.2233
  23.000   1.6551   0.11911   0.11572  -0.0484  0.0817  1.0000  -4.9916   0.0000   0.2234
  23.500   1.6440   0.12648   0.12318  -0.0509  0.0783  1.0000  -5.1014   0.0000   0.2236
  24.000   1.6260   0.13483   0.13161  -0.0541  0.0742  1.0000  -5.1804   0.0000   0.2243
  24.500   1.6157   0.14213   0.13900  -0.0573  0.0708  1.0000  -5.2873   0.0000   0.2248
  25.000   1.6036   0.14978   0.14670  -0.0610  0.0669  1.0000  -5.3831   0.0000   0.2257
  25.500   1.5922   0.15741   0.15442  -0.0650  0.0639  1.0000  -5.4779   0.0000   0.2268
  26.000   1.5797   0.16523   0.16232  -0.0694  0.0611  1.0000  -5.5638   0.0000   0.2282
  26.500   1.5656   0.17329   0.17045  -0.0743  0.0581  1.0000  -5.6376   0.0000   0.2300
  27.000   1.5661   0.17909   0.17632  -0.0783  0.0556  1.0000  -5.7789   0.0000   0.2307
  27.500   1.5523   0.18723   0.18452  -0.0837  0.0523  1.0000  -5.8451   0.0000   0.2328
  28.000   1.5461   0.19415   0.19153  -0.0887  0.0500  1.0000  -5.9477   0.0000   0.2345
  28.500   1.5321   0.20240   0.19983  -0.0947  0.0464  1.0000  -6.0088   0.0000   0.2371
  29.000   1.5322   0.20825   0.20573  -0.0995  0.0436  1.0000  -6.1464   0.0000   0.2383
  29.500   1.5205   0.21610   0.21364  -0.1057  0.0403  1.0000  -6.2112   0.0000   0.2409
  30.000   1.5069   0.22427   0.22184  -0.1123  0.0364  1.0000  -6.2581   0.0000   0.2440
  30.500   1.4952   0.23212   0.22973  -0.1189  0.0315  1.0000  -6.3101   0.0000   0.2470
  31.000   1.4750   0.24169   0.23932  -0.1268  0.0261  1.0000  -6.2955   0.0000   0.2514
  32.000   1.4465   0.25890   0.25656  -0.1416  0.0173  1.0000  -6.3142   0.0000   0.2594
  32.500   1.4271   0.26872   0.26639  -0.1500  0.0123  1.0000  -6.2655   0.0000   0.2646
  33.000   1.4103   0.27821   0.27591  -0.1583  0.0090  1.0000  -6.2196   0.0000   0.2696
  33.500   1.4016   0.28592   0.28367  -0.1655  0.0078  1.0000  -6.2306   0.0000   0.2734
  34.000   1.3967   0.29274   0.29056  -0.1722  0.0071  1.0000  -6.2672   0.0000   0.2764
  34.500   1.3926   0.29939   0.29728  -0.1788  0.0066  1.0000  -6.3054   0.0000   0.2793
  35.000   1.3902   0.30557   0.30350  -0.1852  0.0061  1.0000  -6.3589   0.0000   0.2818
  35.500   1.3885   0.31148   0.30947  -0.1915  0.0058  1.0000  -6.4209   0.0000   0.2842
  36.000   1.3899   0.31647   0.31453  -0.1973  0.0056  1.0000  -6.5161   0.0000   0.2858
  36.500   1.3901   0.32168   0.31979  -0.2033  0.0053  1.0000  -6.5950   0.0000   0.2876
  37.000   1.3885   0.32730   0.32546  -0.2096  0.0050  1.0000  -6.6488   0.0000   0.2898
  37.500   1.3889   0.33227   0.33045  -0.2156  0.0047  1.0000  -6.7329   0.0000   0.2915
  38.000   1.3899   0.33691   0.33514  -0.2215  0.0045  1.0000  -6.8259   0.0000   0.2929
  38.500   1.3930   0.34082   0.33910  -0.2269  0.0044  1.0000  -6.9621   0.0000   0.2937
  39.000   1.3960   0.34463   0.34295  -0.2324  0.0042  1.0000  -7.0998   0.0000   0.2944
  39.500   1.3965   0.34893   0.34729  -0.2383  0.0040  1.0000  -7.1997   0.0000   0.2957
  40.000   1.3988   0.35268   0.35106  -0.2438  0.0038  1.0000  -7.3302   0.0000   0.2964
  40.500   1.3985   0.35698   0.35539  -0.2497  0.0035  1.0000  -7.4190   0.0000   0.2977
  43.000   1.4065   0.37122   0.36980  -0.2771  0.0028  1.0000  -8.0525   0.0000   0.2999
  43.500   1.4055   0.37371   0.37232  -0.2829  0.0027  1.0000  -8.1377   0.0000   0.3008
  44.000   1.4061   0.37568   0.37430  -0.2883  0.0025  1.0000  -8.2583   0.0000   0.3010
  44.500   1.4083   0.37713   0.37575  -0.2935  0.0023  0.9999  -8.4146   0.0000   0.3006
  45.000   1.4070   0.37932   0.37800  -0.2992  0.0022  0.9999  -8.5027   0.0000   0.3012
  45.500   1.4051   0.38153   0.38027  -0.3049  0.0021  0.9999  -8.5943   0.0000   0.3018


