xflr5 v6.33

 Calculated polar for: Bell A821201 v4

 1 1 Reynolds number fixed          Mach number fixed         

 xtrf =   1.000 (top)        1.000 (bottom)
 Mach =   0.000     Re =     3.200 e 6     Ncrit =   9.000

  alpha     CL        CD       CDp       Cm    Top Xtr Bot Xtr   Cpmin    Chinge    XCp    
 ------- -------- --------- --------- -------- ------- ------- -------- --------- ---------
 -25.000  -0.7481   0.17397   0.17218  -0.0412  0.9939  0.0101  -8.2443   0.0000   0.1297
 -24.500  -0.7703   0.16052   0.15856  -0.0509  0.9930  0.0102  -8.6127   0.0000   0.1210
 -24.000  -0.7926   0.14936   0.14728  -0.0572  0.9909  0.0103  -8.8605   0.0000   0.1172
 -23.500  -0.8205   0.13846   0.13624  -0.0624  0.9900  0.0103  -9.1005   0.0000   0.1159
 -23.000  -0.8459   0.12717   0.12480  -0.0686  0.9888  0.0104  -9.3019   0.0000   0.1131
 -22.500  -0.8646   0.11685   0.11434  -0.0745  0.9867  0.0104  -9.4173   0.0000   0.1100
 -22.000  -0.8847   0.10634   0.10368  -0.0805  0.9834  0.0104  -9.5216   0.0000   0.1072
 -21.500  -0.9023   0.09665   0.09384  -0.0857  0.9743  0.0105  -9.5773   0.0000   0.1051
 -21.000  -0.8879   0.08713   0.08347  -0.0961  0.7885  0.0105  -9.4513   0.0000   0.0928
 -20.500  -0.8979   0.07942   0.07557  -0.0997  0.7690  0.0105  -9.4107   0.0000   0.0917
 -20.000  -0.9006   0.07287   0.06882  -0.1026  0.7419  0.0106  -9.3061   0.0000   0.0905
 -19.500  -0.8974   0.06705   0.06260  -0.1054  0.6526  0.0106  -9.1582   0.0000   0.0883
 -19.000  -0.8931   0.06170   0.05709  -0.1074  0.6312  0.0106  -8.9925   0.0000   0.0869
 -18.500  -0.8853   0.05692   0.05216  -0.1089  0.6171  0.0107  -8.8003   0.0000   0.0854
 -18.000  -0.8747   0.05268   0.04781  -0.1099  0.6078  0.0107  -8.5869   0.0000   0.0840
 -17.500  -0.8612   0.04882   0.04385  -0.1106  0.6009  0.0107  -8.3552   0.0000   0.0823
 -17.000  -0.8457   0.04528   0.04020  -0.1112  0.5920  0.0108  -8.1116   0.0000   0.0803
 -16.500  -0.8276   0.04213   0.03697  -0.1113  0.5875  0.0108  -7.8534   0.0000   0.0781
 -16.000  -0.8064   0.03935   0.03413  -0.1113  0.5855  0.0108  -7.5804   0.0000   0.0755
 -15.500  -0.7859   0.03658   0.03130  -0.1112  0.5827  0.0108  -7.3127   0.0000   0.0729
 -15.000  -0.7599   0.03432   0.02898  -0.1109  0.5794  0.0109  -7.0208   0.0000   0.0690
 -14.500  -0.7357   0.03195   0.02653  -0.1107  0.5759  0.0109  -6.7410   0.0000   0.0653
 -14.000  -0.7069   0.03002   0.02454  -0.1103  0.5719  0.0109  -6.4432   0.0000   0.0602
 -13.500  -0.6793   0.02799   0.02246  -0.1099  0.5681  0.0109  -6.1561   0.0000   0.0550
 -13.000  -0.6541   0.02597   0.02038  -0.1091  0.5651  0.0110  -5.8932   0.0000   0.0506
 -12.500  -0.6302   0.02395   0.01830  -0.1080  0.5647  0.0110  -5.6388   0.0000   0.0466
 -12.000  -0.6019   0.02224   0.01654  -0.1070  0.5641  0.0111  -5.3681   0.0000   0.0406
 -11.500  -0.5713   0.02060   0.01487  -0.1062  0.5634  0.0112  -5.0918   0.0000   0.0328
 -11.000  -0.5377   0.01907   0.01330  -0.1057  0.5624  0.0113  -4.8084   0.0000   0.0223
 -10.500  -0.4991   0.01771   0.01191  -0.1057  0.5612  0.0114  -4.5126   0.0000   0.0069
 -10.000  -0.4533   0.01642   0.01059  -0.1070  0.5597  0.0116  -4.1996   0.0000  -0.0179
  -9.500  -0.4049   0.01521   0.00936  -0.1085  0.5579  0.0118  -3.8853   0.0000  -0.0511
  -9.000  -0.3653   0.01405   0.00818  -0.1081  0.5563  0.0120  -3.6039   0.0000  -0.0800
  -8.500  -0.3290   0.01294   0.00705  -0.1070  0.5545  0.0123  -3.3376   0.0000  -0.1101
  -8.000  -0.3026   0.01182   0.00590  -0.1041  0.5525  0.0126  -3.1160   0.0000  -0.1290
  -7.500  -0.2781   0.01120   0.00525  -0.0991  0.5501  0.0130  -2.9134   0.0000  -0.1416
  -7.000  -0.2614   0.01079   0.00483  -0.0919  0.5473  0.0133  -2.7340   0.0000  -0.1361
  -6.500  -0.2313   0.01050   0.00453  -0.0871  0.5435  0.0137  -2.5259   0.0000  -0.1623
  -6.000  -0.1949   0.01012   0.00415  -0.0835  0.5422  0.0155  -2.3203   0.0000  -0.2165
  -5.500  -0.1551   0.00972   0.00379  -0.0804  0.5409  0.0200  -2.1018   0.0000  -0.3118
  -4.500  -0.0799   0.00872   0.00305  -0.0735  0.5376  0.0728  -1.6831   0.0000  -0.7351
  -4.000  -0.0420   0.00819   0.00270  -0.0701  0.5348  0.1178  -1.4794   0.0000  -1.5245
  -3.500  -0.0085   0.00755   0.00233  -0.0657  0.5316  0.1922  -1.2914   0.0000  -7.8824
  -3.000   0.0216   0.00683   0.00195  -0.0607  0.5285  0.2939  -1.1160   0.0000   3.2057
  -2.500   0.0392   0.00582   0.00148  -0.0531  0.5244  0.4547  -0.9697   0.0000   1.6654
  -2.000   0.0874   0.00559   0.00145  -0.0514  0.5212  0.5194  -0.8698   0.0000   0.8570
  -1.500   0.1427   0.00558   0.00148  -0.0511  0.5201  0.5379  -0.9209   0.0000   0.6140
  -1.000   0.1992   0.00558   0.00148  -0.0510  0.5174  0.5437  -0.9732   0.0000   0.5063
  -0.500   0.2541   0.00560   0.00151  -0.0506  0.5117  0.5530  -1.0249   0.0000   0.4462
   0.000   0.3084   0.00569   0.00155  -0.0501  0.5031  0.5566  -1.0788   0.0000   0.4074
   0.500   0.3653   0.00573   0.00157  -0.0503  0.4985  0.5579  -1.1355   0.0000   0.3809
   1.000   0.4213   0.00581   0.00160  -0.0502  0.4894  0.5591  -1.2005   0.0000   0.3612
   1.500   0.4756   0.00594   0.00168  -0.0499  0.4751  0.5602  -1.2665   0.0000   0.3458
   2.000   0.5267   0.00622   0.00181  -0.0490  0.4468  0.5608  -1.3305   0.0000   0.3330
   2.500   0.5790   0.00654   0.00198  -0.0485  0.4157  0.5622  -1.3983   0.0000   0.3229
   3.000   0.6333   0.00687   0.00219  -0.0485  0.3887  0.5645  -1.4693   0.0000   0.3150
   3.500   0.6899   0.00717   0.00240  -0.0490  0.3684  0.5667  -1.5430   0.0000   0.3088
   4.000   0.7483   0.00746   0.00262  -0.0500  0.3513  0.5687  -1.6188   0.0000   0.3038
   4.500   0.8093   0.00773   0.00284  -0.0515  0.3373  0.5705  -1.6975   0.0000   0.3000
   5.000   0.8714   0.00804   0.00310  -0.0534  0.3233  0.5724  -1.7835   0.0000   0.2970
   5.500   0.9354   0.00838   0.00338  -0.0557  0.3107  0.5739  -1.8797   0.0000   0.2946
   6.000   1.0099   0.00870   0.00367  -0.0604  0.2984  0.5751  -1.9870   0.0000   0.2942
   6.500   1.0728   0.00909   0.00400  -0.0626  0.2847  0.5764  -2.0848   0.0000   0.2921
   7.000   1.1286   0.00945   0.00432  -0.0634  0.2751  0.5775  -2.1770   0.0000   0.2891
   7.500   1.1820   0.00980   0.00465  -0.0636  0.2656  0.5787  -2.2679   0.0000   0.2861
   8.000   1.2303   0.01027   0.00507  -0.0630  0.2542  0.5798  -2.3543   0.0000   0.2826
   8.500   1.2790   0.01065   0.00545  -0.0625  0.2469  0.5808  -2.4523   0.0000   0.2794
   9.000   1.3228   0.01119   0.00595  -0.0612  0.2370  0.5816  -2.5546   0.0000   0.2760
   9.500   1.3667   0.01170   0.00646  -0.0600  0.2295  0.5823  -2.6581   0.0000   0.2728
  10.000   1.4043   0.01243   0.00715  -0.0579  0.2200  0.5828  -2.7548   0.0000   0.2692
  10.500   1.4442   0.01311   0.00785  -0.0565  0.2129  0.5847  -2.8550   0.0000   0.2661
  11.000   1.4765   0.01414   0.00887  -0.0542  0.2043  0.5887  -2.9459   0.0000   0.2627
  11.500   1.5111   0.01518   0.00994  -0.0525  0.1978  0.5924  -3.0450   0.0000   0.2598
  12.000   1.5410   0.01656   0.01135  -0.0506  0.1920  0.5955  -3.1383   0.0000   0.2569
  12.500   1.5652   0.01853   0.01335  -0.0488  0.1842  0.5982  -3.2280   0.0000   0.2541
  13.000   1.5945   0.02042   0.01530  -0.0479  0.1803  0.6006  -3.3373   0.0000   0.2519
  13.500   1.6100   0.02326   0.01814  -0.0461  0.1719  0.6027  -3.4271   0.0000   0.2493
  14.000   1.6293   0.02593   0.02086  -0.0448  0.1663  0.6043  -3.5235   0.0000   0.2469
  14.500   1.6363   0.02966   0.02460  -0.0431  0.1576  0.6054  -3.6012   0.0000   0.2445
  15.000   1.6502   0.03290   0.02788  -0.0420  0.1526  0.6073  -3.6959   0.0000   0.2424
  15.500   1.6584   0.03666   0.03168  -0.0408  0.1474  0.6133  -3.7812   0.0000   0.2402
  16.000   1.6696   0.04028   0.03538  -0.0400  0.1424  0.6190  -3.8767   0.0000   0.2383
  16.500   1.6839   0.04367   0.03885  -0.0393  0.1390  0.6236  -3.9790   0.0000   0.2364
  17.000   1.6895   0.04778   0.04296  -0.0384  0.1312  0.6273  -4.0637   0.0000   0.2345
  18.500   1.7143   0.06011   0.05547  -0.0373  0.1152  0.6497  -4.3320   0.0000   0.2295
  19.000   1.7121   0.06540   0.06080  -0.0371  0.1083  0.6599  -4.3974   0.0000   0.2280
  19.500   1.7253   0.06926   0.06474  -0.0374  0.1052  0.6739  -4.4966   0.0000   0.2266
  20.000   1.7212   0.07501   0.07057  -0.0377  0.1002  0.6900  -4.5565   0.0000   0.2254
  20.500   1.7233   0.08026   0.07595  -0.0383  0.0963  0.7119  -4.6335   0.0000   0.2243
  21.000   1.7162   0.08665   0.08245  -0.0393  0.0907  0.7432  -4.6870   0.0000   0.2234
  21.500   1.7205   0.09196   0.08798  -0.0407  0.0869  0.8108  -4.7727   0.0000   0.2227
  22.000   1.6983   0.09801   0.09446  -0.0384  0.0831  0.9978  -4.8548   0.0000   0.2201
  22.500   1.7097   0.10646   0.10299  -0.0457  0.0784  1.0000  -5.0424   0.0000   0.2227
  23.000   1.6925   0.11434   0.11094  -0.0477  0.0743  1.0000  -5.1365   0.0000   0.2225
  23.500   1.6793   0.12186   0.11855  -0.0501  0.0708  1.0000  -5.2424   0.0000   0.2226
  24.000   1.6605   0.13021   0.12697  -0.0531  0.0669  1.0000  -5.3230   0.0000   0.2231
  24.500   1.6461   0.13801   0.13486  -0.0563  0.0637  1.0000  -5.4171   0.0000   0.2236
  25.000   1.6303   0.14610   0.14304  -0.0599  0.0609  1.0000  -5.5011   0.0000   0.2245
  25.500   1.6160   0.15407   0.15109  -0.0639  0.0581  1.0000  -5.5869   0.0000   0.2256
  26.000   1.6107   0.16073   0.15783  -0.0677  0.0558  1.0000  -5.7100   0.0000   0.2264
  26.500   1.5971   0.16860   0.16575  -0.0723  0.0523  1.0000  -5.7911   0.0000   0.2278
  27.000   1.5891   0.17568   0.17292  -0.0768  0.0503  1.0000  -5.8950   0.0000   0.2291
  27.500   1.5732   0.18404   0.18134  -0.0822  0.0470  1.0000  -5.9550   0.0000   0.2313
  28.000   1.5652   0.19120   0.18857  -0.0873  0.0440  1.0000  -6.0546   0.0000   0.2329
  28.500   1.5574   0.19830   0.19571  -0.0926  0.0406  1.0000  -6.1553   0.0000   0.2347
  29.000   1.5413   0.20685   0.20431  -0.0989  0.0367  1.0000  -6.2032   0.0000   0.2375
  29.500   1.5242   0.21565   0.21315  -0.1057  0.0322  1.0000  -6.2373   0.0000   0.2407
  30.000   1.5043   0.22490   0.22243  -0.1129  0.0268  1.0000  -6.2458   0.0000   0.2445
  30.500   1.4861   0.23401   0.23157  -0.1203  0.0225  1.0000  -6.2533   0.0000   0.2485
  31.000   1.4678   0.24328   0.24088  -0.1280  0.0185  1.0000  -6.2489   0.0000   0.2527
  31.500   1.4521   0.25218   0.24981  -0.1355  0.0143  1.0000  -6.2508   0.0000   0.2568
  33.000   1.4178   0.27672   0.27446  -0.1574  0.0070  1.0000  -6.2892   0.0000   0.2684
  33.500   1.4109   0.28397   0.28178  -0.1643  0.0064  1.0000  -6.3209   0.0000   0.2717
  34.000   1.4057   0.29084   0.28871  -0.1710  0.0059  1.0000  -6.3586   0.0000   0.2747
  34.500   1.4086   0.29569   0.29362  -0.1765  0.0057  1.0000  -6.4729   0.0000   0.2760
  35.000   1.4054   0.30194   0.29994  -0.1830  0.0055  1.0000  -6.5267   0.0000   0.2786
  35.500   1.4060   0.30719   0.30524  -0.1889  0.0052  1.0000  -6.6225   0.0000   0.2803
  36.000   1.4015   0.31367   0.31177  -0.1956  0.0048  1.0000  -6.6580   0.0000   0.2832
  36.500   1.3982   0.31970   0.31786  -0.2021  0.0045  1.0000  -6.7016   0.0000   0.2857
  37.000   1.4018   0.32387   0.32208  -0.2075  0.0044  1.0000  -6.8256   0.0000   0.2867
  38.000   1.4037   0.33314   0.33145  -0.2192  0.0041  1.0000  -7.0275   0.0000   0.2894
  38.500   1.4019   0.33833   0.33669  -0.2253  0.0039  1.0000  -7.1034   0.0000   0.2914
  39.000   1.4027   0.34270   0.34108  -0.2311  0.0036  1.0000  -7.2139   0.0000   0.2926
  39.500   1.4001   0.34793   0.34635  -0.2374  0.0033  1.0000  -7.2710   0.0000   0.2946
  40.000   1.4034   0.35124   0.34970  -0.2427  0.0033  1.0000  -7.4221   0.0000   0.2950
  40.500   1.4035   0.35536   0.35387  -0.2484  0.0031  0.9999  -7.5231   0.0000   0.2961
  41.000   1.4054   0.35876   0.35729  -0.2539  0.0030  0.9999  -7.6555   0.0000   0.2966
  41.500   1.4071   0.36207   0.36064  -0.2593  0.0029  0.9999  -7.7869   0.0000   0.2971
  42.000   1.4058   0.36573   0.36434  -0.2653  0.0027  0.9999  -7.8653   0.0000   0.2983
  42.500   1.4066   0.36844   0.36705  -0.2708  0.0026  0.9999  -7.9836   0.0000   0.2988
  43.000   1.4065   0.37103   0.36966  -0.2765  0.0023  0.9999  -8.0837   0.0000   0.2995
  43.500   1.4068   0.37325   0.37192  -0.2821  0.0023  0.9999  -8.1947   0.0000   0.3000
  44.000   1.4079   0.37501   0.37371  -0.2874  0.0022  0.9998  -8.3290   0.0000   0.3001
  44.500   1.4067   0.37727   0.37601  -0.2931  0.0021  0.9998  -8.4156   0.0000   0.3007
  45.000   1.4064   0.37912   0.37790  -0.2986  0.0020  0.9998  -8.5266   0.0000   0.3010
  45.500   1.4059   0.38092   0.37973  -0.3041  0.0019  0.9998  -8.6476   0.0000   0.3011


