xflr5 v6.33

 Calculated polar for: Bell A821201 v4

 1 1 Reynolds number fixed          Mach number fixed         

 xtrf =   1.000 (top)        1.000 (bottom)
 Mach =   0.000     Re =     0.100 e 6     Ncrit =   9.000

  alpha     CL        CD       CDp       Cm    Top Xtr Bot Xtr   Cpmin    Chinge    XCp    
 ------- -------- --------- --------- -------- ------- ------- -------- --------- ---------
 -29.000  -0.6381   0.30623   0.29982   0.0362  1.0000  0.0463  -1.6534   0.0000   0.2319
 -28.500  -0.6196   0.30045   0.29404   0.0339  1.0000  0.0472  -1.5705   0.0000   0.2301
 -28.000  -0.6042   0.29610   0.28970   0.0305  1.0000  0.0487  -1.5327   0.0000   0.2267
 -27.500  -0.5900   0.29168   0.28528   0.0267  1.0000  0.0505  -1.5206   0.0000   0.2223
 -27.000  -0.5821   0.28858   0.28220   0.0213  1.0000  0.0518  -1.6149   0.0000   0.2150
 -26.500  -0.5624   0.28230   0.27595   0.0191  1.0000  0.0527  -1.5438   0.0000   0.2124
 -26.000  -0.5456   0.27769   0.27136   0.0162  1.0000  0.0546  -1.5024   0.0000   0.2085
 -25.500  -0.5323   0.27322   0.26691   0.0122  1.0000  0.0572  -1.5158   0.0000   0.2025
 -25.000  -0.5214   0.26867   0.26240   0.0079  1.0000  0.0583  -1.5535   0.0000   0.1956
 -24.500  -0.5014   0.26323   0.25698   0.0058  1.0000  0.0598  -1.4781   0.0000   0.1919
 -24.000  -0.4855   0.25846   0.25224   0.0027  1.0000  0.0622  -1.4517   0.0000   0.1861
 -23.500  -0.4805   0.25500   0.24881  -0.0027  1.0000  0.0645  -1.5466   0.0000   0.1765
 -23.000  -0.4583   0.24826   0.24211  -0.0044  1.0000  0.0657  -1.4778   0.0000   0.1719
 -22.500  -0.4401   0.24325   0.23714  -0.0068  1.0000  0.0681  -1.4374   0.0000   0.1658
 -22.000  -0.4315   0.23878   0.23271  -0.0112  1.0000  0.0715  -1.4927   0.0000   0.1564
 -21.500  -0.4138   0.23278   0.22676  -0.0135  1.0000  0.0731  -1.4611   0.0000   0.1493
 -21.000  -0.3953   0.22772   0.22175  -0.0156  1.0000  0.0766  -1.4130   0.0000   0.1418
 -20.500  -0.4007   0.22440   0.21851  -0.0216  1.0000  0.0799  -1.5450   0.0000   0.1305
 -20.000  -0.3685   0.21684   0.21098  -0.0215  1.0000  0.0819  -1.4093   0.0000   0.1231
 -19.500  -0.3528   0.21168   0.20588  -0.0239  1.0000  0.0859  -1.3844   0.0000   0.1133
 -19.000  -0.3531   0.20654   0.20083  -0.0285  1.0000  0.0891  -1.4842   0.0000   0.1025
 -18.500  -0.3257   0.20049   0.19483  -0.0289  1.0000  0.0921  -1.3923   0.0000   0.0918
 -18.000  -0.3324   0.19630   0.19073  -0.0338  1.0000  0.0978  -1.5035   0.0000   0.0822
 -17.500  -0.3053   0.18903   0.18354  -0.0343  1.0000  0.1001  -1.4270   0.0000   0.0686
 -17.000  -0.2883   0.18371   0.17829  -0.0357  1.0000  0.1053  -1.3929   0.0000   0.0555
 -16.500  -0.2907   0.17756   0.17227  -0.0395  1.0000  0.1100  -1.4663   0.0000   0.0464
 -16.000  -0.2662   0.17224   0.16704  -0.0398  1.0000  0.1163  -1.3866   0.0000   0.0295
 -15.500  -0.2674   0.16589   0.16084  -0.0429  1.0000  0.1224  -1.4383   0.0000   0.0211
 -15.000  -0.2486   0.16060   0.15568  -0.0436  1.0000  0.1293  -1.3849   0.0000   0.0035
 -14.500  -0.2547   0.15396   0.14924  -0.0466  1.0000  0.1353  -1.4556   0.0000  -0.0004
 -14.000  -0.2388   0.14954   0.14508  -0.0462  0.9999  0.1412  -1.4161   0.0000  -0.0126
 -13.500  -0.2059   0.13704   0.13260  -0.0590  0.9441  0.1507  -1.4537   0.0000  -0.1146
 -13.000  -0.1974   0.12570   0.12118  -0.0730  0.9132  0.1635  -1.5644   0.0000  -0.1998
 -12.500  -0.1274   0.11311   0.10834  -0.0863  0.8894  0.1569  -1.5276   0.0000  -0.5471
 -12.000  -0.5748   0.05090   0.04335  -0.1119  0.8866  0.0648  -3.8134   0.0000   0.0235
 -11.500  -0.5104   0.04428   0.03593  -0.1198  0.8629  0.0649  -3.6819   0.0000  -0.0187
 -11.000  -0.4113   0.03960   0.03090  -0.1278  0.8446  0.0671  -3.4123   0.0000  -0.1002
 -10.500  -0.3213   0.03641   0.02720  -0.1337  0.8305  0.0713  -3.1767   0.0000  -0.2137
 -10.000  -0.2261   0.03460   0.02539  -0.1386  0.8188  0.0807  -2.8851   0.0000  -0.4271
  -9.500  -0.1361   0.03384   0.02484  -0.1417  0.8094  0.0969  -2.6404   0.0000  -0.8923
  -9.000  -0.0912   0.03289   0.02440  -0.1405  0.7999  0.1364  -2.5262   0.0000  -1.4328
  -8.500  -0.1058   0.03037   0.02284  -0.1342  0.7915  0.2329  -2.5175   0.0000  -1.1353
  -8.000  -0.0736   0.03323   0.02709  -0.1267  0.7840  0.4327  -2.3264   0.0000  -1.6259
  -7.500  -0.0179   0.03733   0.03092  -0.1231  0.7777  0.4851  -2.0633   0.0000  -7.2161
  -7.000   0.0228   0.04087   0.03434  -0.1173  0.7705  0.5178  -1.8393   0.0000   5.8077
  -6.500   0.0992   0.04429   0.03751  -0.1161  0.7641  0.5421  -1.5420   0.0000   1.5081
  -6.000   0.2022   0.04721   0.04011  -0.1186  0.7586  0.5667  -1.2017   0.0000   0.8758
  -5.500   0.2532   0.04841   0.04128  -0.1158  0.7518  0.5928  -0.9927   0.0000   0.7357
  -5.000   0.2972   0.04903   0.04179  -0.1133  0.7450  0.6231  -0.8679   0.0000   0.6527
  -4.500   0.3042   0.04964   0.04234  -0.1066  0.7389  0.6543  -0.8830   0.0000   0.6191
  -3.500   0.4985   0.04877   0.04119  -0.1144  0.7217  0.7559  -1.0406   0.0000   0.4876
  -3.000   0.5119   0.04892   0.04143  -0.1086  0.7124  0.7833  -1.0630   0.0000   0.4686
  -2.500   0.5200   0.04963   0.04209  -0.1020  0.7039  0.8120  -1.0839   0.0000   0.4511
  -2.000   0.5503   0.04900   0.04150  -0.0992  0.6938  0.8341  -1.1193   0.0000   0.4335
  -1.500   0.6057   0.04746   0.03988  -0.1006  0.6837  0.8567  -1.1743   0.0000   0.4175
  -1.000   0.6411   0.04710   0.03953  -0.0988  0.6719  0.8804  -1.2164   0.0000   0.4041
   0.000  -0.0245   0.05573   0.04881   0.0091  0.6357  0.7731  -0.7658   0.0000   0.5827
   2.000  -0.0660   0.05582   0.04849   0.0344  0.5692  0.7860  -0.7712   0.0000   0.7887
   5.000   0.0993   0.06011   0.05218   0.0444  0.4846  0.7992  -0.9539   0.0000  -0.2511
   6.000   0.1915   0.06121   0.05312   0.0438  0.4633  0.8038  -1.0628   0.0000  -0.0169
   6.500   0.1928   0.06527   0.05717   0.0445  0.4460  0.8060  -1.0601   0.0000  -0.0209
   7.500   0.2321   0.07284   0.06472   0.0420  0.4180  0.8121  -1.0922   0.0000   0.0301
  10.000   0.3717   0.09532   0.08744   0.0262  0.3587  0.8293  -1.1996   0.0000   0.1453
  10.500   0.4007   0.10038   0.09257   0.0224  0.3491  0.8343  -1.2277   0.0000   0.1600
  11.500   0.4048   0.11750   0.10997   0.0130  0.3343  0.8438  -1.1629   0.0000   0.1833
  12.000   0.4275   0.12434   0.11691   0.0083  0.3302  0.8498  -1.1692   0.0000   0.1962
  12.500   0.4639   0.13098   0.12369   0.0030  0.3276  0.8570  -1.1973   0.0000   0.2098
  13.000   0.5108   0.13823   0.13110  -0.0027  0.3244  0.8668  -1.2485   0.0000   0.2220
  13.500   0.5584   0.14105   0.13407  -0.0074  0.3050  0.8794  -1.3228   0.0000   0.2298
  14.500   0.5364   0.16374   0.15727  -0.0255  0.3127  0.9041  -1.1546   0.0000   0.2635
  15.000   0.6222   0.17229   0.16601  -0.0322  0.3064  1.0000  -1.2952   0.0000   0.2681
  15.500   0.6008   0.17767   0.17141  -0.0382  0.2930  1.0000  -1.2164   0.0000   0.2788
  16.000   0.6672   0.18434   0.17807  -0.0409  0.2874  1.0000  -1.3427   0.0000   0.2763
  16.500   0.6475   0.18939   0.18311  -0.0471  0.2745  1.0000  -1.2632   0.0000   0.2866
  17.000   0.7070   0.19588   0.18960  -0.0487  0.2689  1.0000  -1.3858   0.0000   0.2823
  17.500   0.6884   0.20083   0.19454  -0.0550  0.2571  1.0000  -1.3008   0.0000   0.2921
  18.000   0.7381   0.20674   0.20046  -0.0562  0.2512  1.0000  -1.4091   0.0000   0.2876
  18.500   0.7259   0.21214   0.20587  -0.0624  0.2408  1.0000  -1.3307   0.0000   0.2964
  19.000   0.7659   0.21736   0.21112  -0.0638  0.2343  1.0000  -1.4161   0.0000   0.2928
  19.500   0.7627   0.22340   0.21718  -0.0697  0.2265  1.0000  -1.3580   0.0000   0.2998
  20.000   0.7923   0.22811   0.22192  -0.0720  0.2186  1.0000  -1.4136   0.0000   0.2981
  20.500   0.8476   0.23918   0.23306  -0.0722  0.2160  1.0000  -1.5454   0.0000   0.2917
  21.000   0.8192   0.23925   0.23313  -0.0806  0.2046  1.0000  -1.4169   0.0000   0.3033
  21.500   0.8574   0.24586   0.23982  -0.0817  0.2008  1.0000  -1.5202   0.0000   0.2991
  22.000   0.8496   0.25046   0.24444  -0.0889  0.1929  1.0000  -1.4487   0.0000   0.3072
  22.500   0.8755   0.25530   0.24934  -0.0915  0.1869  1.0000  -1.5176   0.0000   0.3057
  23.000   0.9242   0.26717   0.26132  -0.0915  0.1845  1.0000  -1.6662   0.0000   0.2993
  23.500   0.9011   0.26604   0.26019  -0.1007  0.1745  1.0000  -1.5346   0.0000   0.3103
  24.500   0.9308   0.27681   0.27108  -0.1094  0.1634  1.0000  -1.5634   0.0000   0.3134
  25.000   0.9552   0.28163   0.27598  -0.1120  0.1578  1.0000  -1.6820   0.0000   0.3116
  25.500   0.9646   0.28755   0.28196  -0.1174  0.1538  1.0000  -1.7101   0.0000   0.3145
  26.000   0.9798   0.29199   0.28647  -0.1217  0.1460  1.0000  -1.7753   0.0000   0.3155
  26.500   1.0166   0.30149   0.29610  -0.1220  0.1430  1.0000  -1.9720   0.0000   0.3099
  27.000   1.0062   0.30256   0.29718  -0.1312  0.1350  1.0000  -1.8788   0.0000   0.3185
  28.000   1.0337   0.31287   0.30764  -0.1404  0.1235  1.0000  -1.9782   0.0000   0.3207
  28.500   1.0674   0.32104   0.31593  -0.1405  0.1191  1.0000  -2.1829   0.0000   0.3148
  29.000   1.0650   0.32245   0.31737  -0.1485  0.1099  1.0000  -2.1075   0.0000   0.3208
  29.500   1.0734   0.32813   0.32310  -0.1544  0.1026  1.0000  -2.0836   0.0000   0.3234
  30.000   1.0946   0.33394   0.32899  -0.1568  0.0978  1.0000  -2.1867   0.0000   0.3209
  30.500   1.1037   0.33796   0.33306  -0.1625  0.0899  1.0000  -2.1730   0.0000   0.3230
  31.000   1.1103   0.34383   0.33896  -0.1689  0.0838  1.0000  -2.1106   0.0000   0.3261
  31.500   1.1339   0.34958   0.34480  -0.1704  0.0804  1.0000  -2.2598   0.0000   0.3222
  32.000   1.1342   0.35382   0.34904  -0.1786  0.0747  1.0000  -2.1396   0.0000   0.3276
  32.500   1.1548   0.35971   0.35499  -0.1806  0.0723  1.0000  -2.2711   0.0000   0.3244
  33.000   1.1559   0.36379   0.35908  -0.1888  0.0676  1.0000  -2.1593   0.0000   0.3294
  34.000   1.1765   0.37338   0.36873  -0.1990  0.0615  1.0000  -2.1830   0.0000   0.3310
  34.500   1.1907   0.37719   0.37261  -0.2026  0.0588  1.0000  -2.2865   0.0000   0.3296
  35.000   1.1964   0.38240   0.37783  -0.2092  0.0560  1.0000  -2.2325   0.0000   0.3322
  35.500   1.2076   0.38609   0.38157  -0.2136  0.0531  1.0000  -2.2917   0.0000   0.3318
  36.000   1.2174   0.39056   0.38607  -0.2184  0.0518  1.0000  -2.3179   0.0000   0.3320
  36.500   1.2246   0.39435   0.38990  -0.2244  0.0481  1.0000  -2.2965   0.0000   0.3334
  37.000   1.2385   0.39868   0.39430  -0.2272  0.0465  1.0000  -2.4396   0.0000   0.3310
  37.500   1.2410   0.40189   0.39751  -0.2350  0.0440  1.0000  -2.3287   0.0000   0.3345
  38.000   1.2510   0.40462   0.40029  -0.2391  0.0418  1.0000  -2.4114   0.0000   0.3336
  38.500   1.2567   0.40860   0.40429  -0.2453  0.0398  1.0000  -2.3654   0.0000   0.3351
  39.000   1.2647   0.41139   0.40712  -0.2501  0.0375  1.0000  -2.4027   0.0000   0.3350
  39.500   1.2731   0.41462   0.41039  -0.2543  0.0365  1.0000  -2.4723   0.0000   0.3341
  40.000   0.7301   0.42677   0.42381  -0.1515  0.0288  1.0000  -1.0069   0.0000   0.3831
  40.500   0.7300   0.43345   0.43052  -0.1541  0.0278  1.0000  -0.9830   0.0000   0.3850
  41.000   0.7300   0.43939   0.43651  -0.1568  0.0257  1.0000  -0.9670   0.0000   0.3866
  41.500   0.7305   0.44474   0.44190  -0.1593  0.0246  1.0000  -0.9733   0.0000   0.3877
  42.000   0.7292   0.45128   0.44848  -0.1619  0.0231  1.0000  -0.9468   0.0000   0.3898
  42.500   0.7293   0.45581   0.45305  -0.1643  0.0217  1.0000  -0.9688   0.0000   0.3907
  43.000   0.7278   0.46195   0.45922  -0.1668  0.0211  1.0000  -0.9452   0.0000   0.3925
  43.500   0.7263   0.46736   0.46468  -0.1693  0.0197  1.0000  -0.9304   0.0000   0.3941


