xflr5 v6.33

 Calculated polar for: Bell A821201 v4

 1 1 Reynolds number fixed          Mach number fixed         

 xtrf =   1.000 (top)        1.000 (bottom)
 Mach =   0.000     Re =     3.400 e 6     Ncrit =   9.000

  alpha     CL        CD       CDp       Cm    Top Xtr Bot Xtr   Cpmin    Chinge    XCp    
 ------- -------- --------- --------- -------- ------- ------- -------- --------- ---------
 -25.500  -0.7343   0.18410   0.18243  -0.0351  0.9941  0.0099  -8.0254   0.0000   0.1350
 -25.000  -0.7611   0.16966   0.16783  -0.0452  0.9933  0.0100  -8.5038   0.0000   0.1257
 -24.500  -0.7811   0.15704   0.15506  -0.0542  0.9922  0.0101  -8.8124   0.0000   0.1179
 -24.000  -0.8132   0.14618   0.14407  -0.0586  0.9905  0.0102  -9.1008   0.0000   0.1181
 -23.500  -0.8378   0.13537   0.13313  -0.0643  0.9895  0.0102  -9.3070   0.0000   0.1157
 -23.000  -0.8613   0.12433   0.12194  -0.0705  0.9880  0.0102  -9.4835   0.0000   0.1128
 -22.500  -0.8852   0.11324   0.11070  -0.0769  0.9857  0.0103  -9.6363   0.0000   0.1099
 -22.000  -0.9043   0.10306   0.10038  -0.0826  0.9816  0.0103  -9.7210   0.0000   0.1074
 -21.500  -0.8970   0.09262   0.08918  -0.0932  0.8135  0.0104  -9.6531   0.0000   0.0959
 -21.000  -0.9106   0.08425   0.08055  -0.0974  0.7818  0.0104  -9.6478   0.0000   0.0948
 -20.500  -0.9169   0.07718   0.07329  -0.1006  0.7621  0.0104  -9.5736   0.0000   0.0937
 -20.000  -0.9208   0.07057   0.06648  -0.1034  0.7303  0.0105  -9.4712   0.0000   0.0927
 -19.500  -0.9183   0.06478   0.06030  -0.1061  0.6465  0.0105  -9.3224   0.0000   0.0909
 -19.000  -0.9127   0.05968   0.05505  -0.1078  0.6277  0.0105  -9.1435   0.0000   0.0896
 -18.500  -0.9042   0.05507   0.05030  -0.1092  0.6118  0.0106  -8.9422   0.0000   0.0883
 -18.000  -0.8936   0.05090   0.04603  -0.1100  0.6057  0.0106  -8.7245   0.0000   0.0871
 -17.500  -0.8783   0.04731   0.04233  -0.1106  0.5980  0.0106  -8.4785   0.0000   0.0853
 -17.000  -0.8610   0.04403   0.03895  -0.1110  0.5884  0.0107  -8.2217   0.0000   0.0833
 -16.500  -0.8437   0.04084   0.03569  -0.1111  0.5867  0.0107  -7.9651   0.0000   0.0815
 -16.000  -0.8214   0.03820   0.03300  -0.1110  0.5842  0.0107  -7.6830   0.0000   0.0789
 -15.500  -0.7999   0.03556   0.03029  -0.1108  0.5810  0.0108  -7.4077   0.0000   0.0763
 -15.000  -0.7741   0.03330   0.02796  -0.1105  0.5773  0.0108  -7.1143   0.0000   0.0727
 -14.500  -0.7489   0.03105   0.02565  -0.1102  0.5732  0.0108  -6.8270   0.0000   0.0691
 -14.000  -0.7201   0.02913   0.02367  -0.1097  0.5690  0.0108  -6.5268   0.0000   0.0643
 -13.500  -0.6921   0.02717   0.02166  -0.1093  0.5656  0.0109  -6.2350   0.0000   0.0593
 -13.000  -0.6619   0.02550   0.01996  -0.1086  0.5648  0.0109  -5.9372   0.0000   0.0536
 -12.500  -0.6327   0.02380   0.01822  -0.1078  0.5643  0.0109  -5.6486   0.0000   0.0477
 -12.000  -0.6007   0.02230   0.01670  -0.1070  0.5636  0.0109  -5.3533   0.0000   0.0402
 -11.500  -0.5715   0.02060   0.01495  -0.1061  0.5626  0.0110  -5.0841   0.0000   0.0331
 -11.000  -0.5396   0.01899   0.01330  -0.1055  0.5615  0.0111  -4.8098   0.0000   0.0235
 -10.500  -0.5027   0.01755   0.01182  -0.1053  0.5602  0.0112  -4.5218   0.0000   0.0094
 -10.000  -0.4583   0.01622   0.01046  -0.1063  0.5585  0.0113  -4.2148   0.0000  -0.0137
  -9.500  -0.4079   0.01500   0.00920  -0.1083  0.5566  0.0115  -3.8960   0.0000  -0.0484
  -9.000  -0.3680   0.01382   0.00800  -0.1080  0.5547  0.0117  -3.6153   0.0000  -0.0773
  -8.500  -0.3319   0.01270   0.00685  -0.1069  0.5527  0.0120  -3.3508   0.0000  -0.1067
  -8.000  -0.3069   0.01162   0.00574  -0.1036  0.5503  0.0124  -3.1344   0.0000  -0.1223
  -7.500  -0.2819   0.01104   0.00514  -0.0986  0.5477  0.0127  -2.9291   0.0000  -0.1346
  -7.000  -0.2668   0.01067   0.00476  -0.0910  0.5448  0.0131  -2.7526   0.0000  -0.1249
  -6.500  -0.2335   0.01035   0.00443  -0.0868  0.5425  0.0136  -2.5364   0.0000  -0.1570
  -6.000  -0.1952   0.00997   0.00407  -0.0835  0.5418  0.0149  -2.3222   0.0000  -0.2158
  -5.500  -0.1550   0.00958   0.00371  -0.0805  0.5402  0.0188  -2.1027   0.0000  -0.3126
  -5.000  -0.1172   0.00911   0.00334  -0.0771  0.5385  0.0380  -1.8917   0.0000  -0.4580
  -4.500  -0.0787   0.00862   0.00300  -0.0738  0.5365  0.0686  -1.6815   0.0000  -0.7526
  -4.000  -0.0395   0.00815   0.00267  -0.0705  0.5333  0.1085  -1.4748   0.0000  -1.6485
  -3.000   0.0257   0.00686   0.00195  -0.0615  0.5262  0.2737  -1.1083   0.0000   2.7572
  -2.500   0.0448   0.00593   0.00153  -0.0542  0.5221  0.4230  -0.9596   0.0000   1.5112
  -2.000   0.0879   0.00548   0.00140  -0.0515  0.5208  0.5175  -0.8702   0.0000   0.8545
  -1.500   0.1436   0.00545   0.00142  -0.0513  0.5194  0.5364  -0.9216   0.0000   0.6129
  -1.000   0.2005   0.00549   0.00143  -0.0512  0.5160  0.5408  -0.9741   0.0000   0.5059
  -0.500   0.2556   0.00549   0.00144  -0.0509  0.5094  0.5510  -1.0259   0.0000   0.4464
   0.000   0.3102   0.00559   0.00150  -0.0505  0.5010  0.5556  -1.0801   0.0000   0.4078
   0.500   0.3678   0.00562   0.00151  -0.0508  0.4967  0.5570  -1.1371   0.0000   0.3814
   1.000   0.4234   0.00573   0.00155  -0.0507  0.4850  0.5583  -1.2020   0.0000   0.3618
   1.500   0.4779   0.00588   0.00163  -0.0504  0.4681  0.5596  -1.2681   0.0000   0.3465
   2.000   0.5295   0.00616   0.00178  -0.0496  0.4393  0.5604  -1.3325   0.0000   0.3338
   2.500   0.5794   0.00655   0.00200  -0.0486  0.4062  0.5608  -1.3986   0.0000   0.3231
   3.000   0.6337   0.00684   0.00219  -0.0486  0.3829  0.5619  -1.4698   0.0000   0.3151
   3.500   0.6917   0.00712   0.00238  -0.0494  0.3633  0.5642  -1.5445   0.0000   0.3092
   4.000   0.7510   0.00743   0.00261  -0.0506  0.3448  0.5664  -1.6211   0.0000   0.3044
   4.500   0.8137   0.00769   0.00282  -0.0525  0.3329  0.5685  -1.7012   0.0000   0.3009
   5.000   0.8783   0.00796   0.00306  -0.0548  0.3206  0.5707  -1.7898   0.0000   0.2982
   5.500   0.9441   0.00832   0.00335  -0.0576  0.3056  0.5724  -1.8878   0.0000   0.2961
   6.000   1.0198   0.00866   0.00364  -0.0625  0.2936  0.5738  -1.9963   0.0000   0.2958
   6.500   1.0805   0.00898   0.00393  -0.0642  0.2823  0.5752  -2.0923   0.0000   0.2932
   7.000   1.1341   0.00938   0.00428  -0.0645  0.2708  0.5765  -2.1825   0.0000   0.2899
   7.500   1.1877   0.00969   0.00457  -0.0648  0.2631  0.5777  -2.2737   0.0000   0.2868
   8.000   1.2353   0.01017   0.00500  -0.0640  0.2501  0.5789  -2.3595   0.0000   0.2833
   8.500   1.2845   0.01052   0.00536  -0.0636  0.2445  0.5800  -2.4587   0.0000   0.2801
   9.000   1.3272   0.01109   0.00588  -0.0621  0.2328  0.5810  -2.5598   0.0000   0.2765
   9.500   1.3721   0.01156   0.00635  -0.0610  0.2270  0.5818  -2.6647   0.0000   0.2734
  10.000   1.4092   0.01229   0.00705  -0.0588  0.2160  0.5825  -2.7607   0.0000   0.2697
  10.500   1.4490   0.01295   0.00771  -0.0572  0.2106  0.5830  -2.8611   0.0000   0.2666
  11.000   1.4803   0.01399   0.00873  -0.0547  0.2004  0.5859  -2.9509   0.0000   0.2630
  11.500   1.5175   0.01489   0.00968  -0.0533  0.1962  0.5898  -3.0539   0.0000   0.2602
  12.000   1.5448   0.01636   0.01117  -0.0511  0.1892  0.5935  -3.1438   0.0000   0.2571
  12.500   1.5741   0.01798   0.01283  -0.0496  0.1833  0.5965  -3.2419   0.0000   0.2545
  13.000   1.6007   0.02002   0.01492  -0.0485  0.1780  0.5992  -3.3474   0.0000   0.2521
  13.500   1.6171   0.02279   0.01770  -0.0467  0.1694  0.6015  -3.4390   0.0000   0.2496
  14.000   1.6355   0.02550   0.02045  -0.0453  0.1636  0.6035  -3.5341   0.0000   0.2472
  14.500   1.6445   0.02905   0.02401  -0.0437  0.1552  0.6048  -3.6159   0.0000   0.2448
  15.000   1.6568   0.03242   0.02742  -0.0425  0.1508  0.6058  -3.7081   0.0000   0.2426
  15.500   1.6637   0.03625   0.03128  -0.0411  0.1448  0.6100  -3.7916   0.0000   0.2404
  16.000   1.6796   0.03949   0.03461  -0.0405  0.1416  0.6166  -3.8968   0.0000   0.2385
  16.500   1.6917   0.04300   0.03818  -0.0397  0.1367  0.6217  -3.9951   0.0000   0.2366
  17.000   1.6979   0.04709   0.04231  -0.0389  0.1299  0.6259  -4.0812   0.0000   0.2347
  17.500   1.7057   0.05114   0.04641  -0.0383  0.1252  0.6290  -4.1704   0.0000   0.2329
  18.000   1.7149   0.05508   0.05037  -0.0378  0.1182  0.6382  -4.2621   0.0000   0.2311
  18.500   1.7184   0.05977   0.05512  -0.0375  0.1130  0.6470  -4.3411   0.0000   0.2296
  19.500   1.7306   0.06875   0.06424  -0.0376  0.1037  0.6701  -4.5090   0.0000   0.2267
  20.000   1.7264   0.07448   0.07003  -0.0378  0.0981  0.6835  -4.5691   0.0000   0.2254
  20.500   1.7297   0.07954   0.07521  -0.0384  0.0944  0.7019  -4.6498   0.0000   0.2242
  21.000   1.7265   0.08545   0.08122  -0.0392  0.0887  0.7320  -4.7127   0.0000   0.2233
  21.500   1.7259   0.09126   0.08722  -0.0405  0.0853  0.7826  -4.7916   0.0000   0.2226
  22.000   1.6871   0.09656   0.09300  -0.0344  0.0818  0.9954  -4.8235   0.0000   0.2180
  22.500   1.7154   0.10577   0.10231  -0.0457  0.0768  1.0000  -5.0640   0.0000   0.2226
  23.000   1.6972   0.11376   0.11036  -0.0477  0.0723  1.0000  -5.1546   0.0000   0.2225
  23.500   1.6846   0.12117   0.11787  -0.0500  0.0693  1.0000  -5.2637   0.0000   0.2224
  24.000   1.6644   0.12970   0.12647  -0.0530  0.0650  1.0000  -5.3392   0.0000   0.2229
  24.500   1.6516   0.13727   0.13413  -0.0561  0.0625  1.0000  -5.4406   0.0000   0.2234
  25.000   1.6334   0.14568   0.14262  -0.0598  0.0593  1.0000  -5.5148   0.0000   0.2244
  25.500   1.6245   0.15285   0.14988  -0.0635  0.0573  1.0000  -5.6254   0.0000   0.2252
  26.000   1.6178   0.15968   0.15676  -0.0673  0.0543  1.0000  -5.7431   0.0000   0.2260
  26.500   1.6048   0.16747   0.16463  -0.0718  0.0515  1.0000  -5.8282   0.0000   0.2273
  27.000   1.5925   0.17516   0.17241  -0.0766  0.0490  1.0000  -5.9125   0.0000   0.2289
  27.500   1.5785   0.18322   0.18053  -0.0819  0.0460  1.0000  -5.9826   0.0000   0.2308
  28.000   1.5669   0.19093   0.18829  -0.0872  0.0424  1.0000  -6.0649   0.0000   0.2328
  28.500   1.5607   0.19777   0.19518  -0.0923  0.0392  1.0000  -6.1746   0.0000   0.2344
  29.000   1.5445   0.20634   0.20380  -0.0987  0.0353  1.0000  -6.2226   0.0000   0.2372
  29.500   1.5238   0.21575   0.21324  -0.1058  0.0299  1.0000  -6.2361   0.0000   0.2408
  30.000   1.5014   0.22547   0.22299  -0.1133  0.0248  1.0000  -6.2277   0.0000   0.2449
  30.500   1.4851   0.23422   0.23178  -0.1205  0.0209  1.0000  -6.2477   0.0000   0.2486
  31.000   1.4681   0.24325   0.24085  -0.1280  0.0171  1.0000  -6.2519   0.0000   0.2527
  31.500   1.4478   0.25309   0.25071  -0.1361  0.0123  1.0000  -6.2201   0.0000   0.2576
  32.000   1.4299   0.26259   0.26024  -0.1442  0.0087  1.0000  -6.1911   0.0000   0.2624
  32.500   1.4257   0.26929   0.26697  -0.1505  0.0073  1.0000  -6.2586   0.0000   0.2650
  33.000   1.4197   0.27633   0.27408  -0.1572  0.0067  1.0000  -6.3067   0.0000   0.2680
  33.500   1.4123   0.28369   0.28151  -0.1641  0.0061  1.0000  -6.3338   0.0000   0.2714
  34.000   1.4114   0.28953   0.28741  -0.1701  0.0058  1.0000  -6.4150   0.0000   0.2735
  34.500   1.4118   0.29496   0.29290  -0.1760  0.0056  1.0000  -6.5060   0.0000   0.2754
  35.000   1.4081   0.30131   0.29932  -0.1826  0.0053  1.0000  -6.5561   0.0000   0.2780
  35.500   1.4081   0.30672   0.30477  -0.1885  0.0050  1.0000  -6.6470   0.0000   0.2799
  36.000   1.4023   0.31344   0.31155  -0.1954  0.0046  1.0000  -6.6682   0.0000   0.2830
  37.000   1.4052   0.32295   0.32117  -0.2069  0.0043  1.0000  -6.8707   0.0000   0.2858
  37.500   1.4040   0.32817   0.32645  -0.2131  0.0042  1.0000  -6.9441   0.0000   0.2877
  38.000   1.4060   0.33245   0.33077  -0.2187  0.0040  1.0000  -7.0622   0.0000   0.2888
  38.500   1.4034   0.33786   0.33622  -0.2250  0.0038  1.0000  -7.1285   0.0000   0.2909
  39.000   1.4033   0.34249   0.34088  -0.2309  0.0034  1.0000  -7.2264   0.0000   0.2923
  39.500   1.4023   0.34723   0.34566  -0.2369  0.0033  0.9999  -7.3092   0.0000   0.2939
  40.000   1.4054   0.35059   0.34906  -0.2422  0.0032  0.9999  -7.4583   0.0000   0.2944
  40.500   1.4055   0.35470   0.35322  -0.2480  0.0031  0.9999  -7.5609   0.0000   0.2955
  41.000   1.4069   0.35831   0.35686  -0.2535  0.0030  0.9999  -7.6853   0.0000   0.2961
  41.500   1.4082   0.36169   0.36027  -0.2590  0.0028  0.9999  -7.8128   0.0000   0.2967
  42.000   1.4063   0.36560   0.36421  -0.2650  0.0026  0.9999  -7.8813   0.0000   0.2981
  42.500   1.4070   0.36832   0.36695  -0.2706  0.0024  0.9999  -7.9955   0.0000   0.2987
  43.000   1.4074   0.37081   0.36946  -0.2762  0.0023  0.9998  -8.1063   0.0000   0.2992
  43.500   1.4074   0.37304   0.37173  -0.2818  0.0022  0.9998  -8.2135   0.0000   0.2997
  44.000   1.4085   0.37480   0.37353  -0.2872  0.0021  0.9998  -8.3482   0.0000   0.2998
  44.500   1.4070   0.37706   0.37582  -0.2930  0.0020  0.9998  -8.4295   0.0000   0.3005
  45.000   1.4070   0.37891   0.37770  -0.2984  0.0019  0.9998  -8.5463   0.0000   0.3007
  45.500   1.4062   0.38077   0.37959  -0.3039  0.0018  0.9998  -8.6613   0.0000   0.3010


