xflr5 v6.33

 Calculated polar for: Bell A821201 v4

 1 1 Reynolds number fixed          Mach number fixed         

 xtrf =   1.000 (top)        1.000 (bottom)
 Mach =   0.000     Re =     4.100 e 6     Ncrit =   9.000

  alpha     CL        CD       CDp       Cm    Top Xtr Bot Xtr   Cpmin    Chinge    XCp    
 ------- -------- --------- --------- -------- ------- ------- -------- --------- ---------
 -26.500  -0.7467   0.19506   0.19352  -0.0286  0.9941  0.0094  -8.1984   0.0000   0.1416
 -26.000  -0.7657   0.18195   0.18029  -0.0385  0.9934  0.0095  -8.6217   0.0000   0.1318
 -25.500  -0.7814   0.16972   0.16793  -0.0478  0.9923  0.0096  -8.9301   0.0000   0.1230
 -25.000  -0.8131   0.15898   0.15708  -0.0522  0.9906  0.0097  -9.2521   0.0000   0.1228
 -24.500  -0.8388   0.14837   0.14635  -0.0577  0.9899  0.0098  -9.4959   0.0000   0.1207
 -24.000  -0.8670   0.13672   0.13456  -0.0643  0.9889  0.0098  -9.7482   0.0000   0.1177
 -23.500  -0.8966   0.12479   0.12247  -0.0712  0.9874  0.0098  -9.9813   0.0000   0.1148
 -23.000  -0.9254   0.11317   0.11069  -0.0779  0.9852  0.0099  -10.1714   0.0000   0.1123
 -22.500  -0.9503   0.10232   0.09968  -0.0841  0.9816  0.0099  -10.2985   0.0000   0.1101
 -22.000  -0.9493   0.09241   0.08899  -0.0930  0.8079  0.0099  -10.2476   0.0000   0.1019
 -21.500  -0.9657   0.08378   0.08014  -0.0973  0.7822  0.0100  -10.2557   0.0000   0.1011
 -21.000  -0.9740   0.07658   0.07277  -0.1005  0.7649  0.0100  -10.1870   0.0000   0.1004
 -20.500  -0.9805   0.06977   0.06577  -0.1033  0.7399  0.0100  -10.0937   0.0000   0.0999
 -20.000  -0.9771   0.06424   0.05986  -0.1058  0.6501  0.0101  -9.9289   0.0000   0.0984
 -19.500  -0.9720   0.05916   0.05462  -0.1075  0.6291  0.0101  -9.7443   0.0000   0.0974
 -19.000  -0.9640   0.05458   0.04991  -0.1087  0.6122  0.0102  -9.5368   0.0000   0.0965
 -18.500  -0.9538   0.05044   0.04566  -0.1095  0.6054  0.0102  -9.3122   0.0000   0.0956
 -18.000  -0.9404   0.04670   0.04182  -0.1101  0.5968  0.0102  -9.0678   0.0000   0.0945
 -17.500  -0.9220   0.04360   0.03863  -0.1103  0.5880  0.0103  -8.7947   0.0000   0.0929
 -17.000  -0.9048   0.04044   0.03541  -0.1104  0.5857  0.0103  -8.5291   0.0000   0.0915
 -16.500  -0.8830   0.03779   0.03269  -0.1102  0.5826  0.0104  -8.2400   0.0000   0.0896
 -16.000  -0.8612   0.03520   0.03003  -0.1100  0.5788  0.0104  -7.9532   0.0000   0.0875
 -15.500  -0.8359   0.03293   0.02768  -0.1097  0.5738  0.0104  -7.6519   0.0000   0.0847
 -15.000  -0.8105   0.03073   0.02541  -0.1093  0.5687  0.0105  -7.3532   0.0000   0.0818
 -14.500  -0.7822   0.02879   0.02343  -0.1089  0.5651  0.0105  -7.0440   0.0000   0.0781
 -14.000  -0.7548   0.02685   0.02145  -0.1082  0.5648  0.0106  -6.7437   0.0000   0.0746
 -13.500  -0.7250   0.02517   0.01975  -0.1074  0.5642  0.0106  -6.4356   0.0000   0.0703
 -13.000  -0.6959   0.02350   0.01804  -0.1066  0.5635  0.0106  -6.1361   0.0000   0.0658
 -12.500  -0.6643   0.02200   0.01652  -0.1058  0.5626  0.0107  -5.8305   0.0000   0.0602
 -12.000  -0.6315   0.02053   0.01503  -0.1050  0.5614  0.0107  -5.5259   0.0000   0.0535
 -11.500  -0.5972   0.01912   0.01359  -0.1044  0.5600  0.0107  -5.2218   0.0000   0.0453
 -11.000  -0.5596   0.01785   0.01230  -0.1040  0.5583  0.0108  -4.9113   0.0000   0.0343
 -10.500  -0.5192   0.01661   0.01103  -0.1041  0.5564  0.0108  -4.5984   0.0000   0.0195
 -10.000  -0.4715   0.01544   0.00983  -0.1054  0.5538  0.0108  -4.2695   0.0000  -0.0042
  -9.500  -0.4153   0.01437   0.00873  -0.1081  0.5509  0.0109  -3.9228   0.0000  -0.0427
  -9.000  -0.3723   0.01331   0.00765  -0.1082  0.5481  0.0109  -3.6261   0.0000  -0.0740
  -8.500  -0.3368   0.01217   0.00648  -0.1070  0.5456  0.0110  -3.3644   0.0000  -0.1020
  -8.000  -0.3150   0.01118   0.00545  -0.1028  0.5432  0.0112  -3.1542   0.0000  -0.1100
  -7.500  -0.2910   0.01062   0.00487  -0.0973  0.5425  0.0117  -2.9609   0.0000  -0.1181
  -7.000  -0.2738   0.01024   0.00449  -0.0900  0.5421  0.0122  -2.7833   0.0000  -0.1115
  -6.500  -0.2378   0.00987   0.00414  -0.0863  0.5414  0.0129  -2.5596   0.0000  -0.1474
  -6.000  -0.1968   0.00954   0.00382  -0.0834  0.5397  0.0136  -2.3282   0.0000  -0.2118
  -5.500  -0.1546   0.00921   0.00351  -0.0808  0.5374  0.0161  -2.1056   0.0000  -0.3156
  -5.000  -0.1143   0.00882   0.00318  -0.0778  0.5353  0.0291  -1.8877   0.0000  -0.4825
  -4.500  -0.0753   0.00837   0.00285  -0.0745  0.5318  0.0570  -1.6765   0.0000  -0.8081
  -4.000  -0.0345   0.00798   0.00257  -0.0716  0.5271  0.0891  -1.4665   0.0000  -1.9505
  -3.000   0.0374   0.00690   0.00197  -0.0637  0.5212  0.2231  -1.0870   0.0000   2.0348
  -2.500   0.0644   0.00613   0.00160  -0.0579  0.5205  0.3386  -0.9241   0.0000   1.1852
  -2.000   0.0916   0.00523   0.00124  -0.0522  0.5192  0.4970  -0.8725   0.0000   0.8379
  -1.500   0.1475   0.00514   0.00125  -0.0521  0.5162  0.5279  -0.9241   0.0000   0.6086
  -1.000   0.2041   0.00519   0.00127  -0.0520  0.5098  0.5384  -0.9764   0.0000   0.5051
  -0.500   0.2602   0.00527   0.00130  -0.0519  0.5011  0.5414  -1.0288   0.0000   0.4466
   0.000   0.3174   0.00528   0.00134  -0.0521  0.4973  0.5522  -1.0848   0.0000   0.4090
   0.500   0.3744   0.00536   0.00137  -0.0523  0.4869  0.5538  -1.1415   0.0000   0.3829
   1.000   0.4312   0.00548   0.00143  -0.0524  0.4732  0.5555  -1.2076   0.0000   0.3637
   1.500   0.4850   0.00575   0.00155  -0.0521  0.4428  0.5571  -1.2731   0.0000   0.3485
   2.000   0.5372   0.00609   0.00175  -0.0515  0.4117  0.5587  -1.3380   0.0000   0.3360
   2.500   0.5899   0.00643   0.00195  -0.0511  0.3842  0.5597  -1.4068   0.0000   0.3259
   3.000   0.6452   0.00671   0.00214  -0.0512  0.3645  0.5601  -1.4790   0.0000   0.3179
   3.500   0.7019   0.00699   0.00235  -0.0517  0.3479  0.5605  -1.5530   0.0000   0.3115
   4.000   0.7611   0.00724   0.00254  -0.0527  0.3351  0.5608  -1.6297   0.0000   0.3064
   4.500   0.8225   0.00750   0.00275  -0.0543  0.3222  0.5612  -1.7089   0.0000   0.3025
   5.000   0.8914   0.00782   0.00299  -0.0577  0.3079  0.5635  -1.8018   0.0000   0.3005
   5.500   0.9730   0.00810   0.00323  -0.0638  0.2962  0.5660  -1.9146   0.0000   0.3008
   6.000   1.0389   0.00842   0.00350  -0.0666  0.2829  0.5682  -2.0145   0.0000   0.2987
   6.500   1.0959   0.00877   0.00380  -0.0675  0.2715  0.5703  -2.1072   0.0000   0.2954
   7.000   1.1511   0.00904   0.00406  -0.0680  0.2643  0.5722  -2.1995   0.0000   0.2921
   7.500   1.1998   0.00947   0.00444  -0.0673  0.2510  0.5739  -2.2861   0.0000   0.2884
   8.000   1.2516   0.00977   0.00474  -0.0672  0.2450  0.5756  -2.3767   0.0000   0.2852
   8.500   1.2965   0.01026   0.00518  -0.0660  0.2329  0.5771  -2.4726   0.0000   0.2815
   9.000   1.3432   0.01065   0.00558  -0.0651  0.2272  0.5785  -2.5790   0.0000   0.2783
   9.500   1.3841   0.01125   0.00613  -0.0633  0.2160  0.5798  -2.6791   0.0000   0.2747
  10.000   1.4263   0.01177   0.00665  -0.0618  0.2107  0.5809  -2.7821   0.0000   0.2714
  10.500   1.4607   0.01258   0.00743  -0.0593  0.2004  0.5818  -2.8759   0.0000   0.2677
  11.000   1.4995   0.01327   0.00814  -0.0577  0.1960  0.5825  -2.9765   0.0000   0.2646
  11.500   1.5302   0.01435   0.00920  -0.0551  0.1889  0.5829  -3.0711   0.0000   0.2612
  12.000   1.5638   0.01543   0.01031  -0.0534  0.1832  0.5853  -3.1712   0.0000   0.2583
  12.500   1.5928   0.01690   0.01182  -0.0516  0.1776  0.5894  -3.2711   0.0000   0.2555
  13.000   1.6151   0.01910   0.01403  -0.0498  0.1692  0.5936  -3.3708   0.0000   0.2528
  13.500   1.6366   0.02149   0.01646  -0.0484  0.1625  0.5971  -3.4716   0.0000   0.2503
  14.000   1.6511   0.02443   0.01942  -0.0466  0.1545  0.5999  -3.5605   0.0000   0.2478
  14.500   1.6655   0.02751   0.02254  -0.0452  0.1498  0.6023  -3.6532   0.0000   0.2455
  15.000   1.6768   0.03091   0.02596  -0.0438  0.1436  0.6041  -3.7453   0.0000   0.2432
  15.500   1.6954   0.03377   0.02889  -0.0429  0.1412  0.6054  -3.8539   0.0000   0.2412
  16.000   1.7043   0.03746   0.03262  -0.0417  0.1361  0.6070  -3.9467   0.0000   0.2390
  16.500   1.7109   0.04143   0.03663  -0.0407  0.1296  0.6140  -4.0345   0.0000   0.2370
  17.000   1.7178   0.04548   0.04074  -0.0399  0.1243  0.6200  -4.1227   0.0000   0.2351
  17.500   1.7234   0.04965   0.04494  -0.0391  0.1178  0.6247  -4.2080   0.0000   0.2332
  18.000   1.7304   0.05375   0.04906  -0.0385  0.1122  0.6284  -4.2959   0.0000   0.2314
  18.500   1.7343   0.05834   0.05371  -0.0382  0.1069  0.6361  -4.3764   0.0000   0.2298
  19.000   1.7451   0.06223   0.05765  -0.0381  0.1029  0.6462  -4.4718   0.0000   0.2283
  19.500   1.7450   0.06735   0.06283  -0.0380  0.0979  0.6531  -4.5424   0.0000   0.2268
  20.000   1.7480   0.07232   0.06790  -0.0383  0.0937  0.6693  -4.6216   0.0000   0.2255
  20.500   1.7498   0.07736   0.07299  -0.0386  0.0883  0.6832  -4.6995   0.0000   0.2242
  21.500   1.7383   0.08972   0.08557  -0.0403  0.0796  0.7292  -4.8351   0.0000   0.2223
  22.000   1.7308   0.09636   0.09238  -0.0418  0.0759  0.7756  -4.9674   0.0000   0.2218
  22.500   1.6834   0.10123   0.09776  -0.0339  0.0728  0.9943  -4.9734   0.0000   0.2162
  23.000   1.7140   0.11171   0.10832  -0.0475  0.0677  1.0000  -5.2194   0.0000   0.2221
  23.500   1.6984   0.11943   0.11613  -0.0498  0.0642  1.0000  -5.3187   0.0000   0.2221
  24.000   1.6820   0.12741   0.12419  -0.0525  0.0613  1.0000  -5.4112   0.0000   0.2224
  24.500   1.6655   0.13543   0.13229  -0.0557  0.0582  1.0000  -5.4996   0.0000   0.2229
  25.000   1.6636   0.14144   0.13837  -0.0584  0.0561  1.0000  -5.6462   0.0000   0.2230
  25.500   1.6450   0.14991   0.14691  -0.0624  0.0528  1.0000  -5.7179   0.0000   0.2241
  26.000   1.6339   0.15738   0.15447  -0.0664  0.0506  1.0000  -5.8184   0.0000   0.2251
  26.500   1.6163   0.16584   0.16300  -0.0712  0.0476  1.0000  -5.8839   0.0000   0.2267
  27.000   1.6042   0.17345   0.17070  -0.0759  0.0452  1.0000  -5.9709   0.0000   0.2281
  27.500   1.5871   0.18192   0.17922  -0.0813  0.0414  1.0000  -6.0281   0.0000   0.2302
  28.000   1.5796   0.18894   0.18627  -0.0862  0.0376  1.0000  -6.1351   0.0000   0.2317
  28.500   1.5620   0.19764   0.19502  -0.0924  0.0335  1.0000  -6.1837   0.0000   0.2344
  29.000   1.5379   0.20756   0.20497  -0.0995  0.0279  1.0000  -6.1859   0.0000   0.2380
  29.500   1.5177   0.21691   0.21436  -0.1066  0.0236  1.0000  -6.2007   0.0000   0.2416
  30.000   1.4996   0.22588   0.22339  -0.1137  0.0199  1.0000  -6.2184   0.0000   0.2453
  30.500   1.4810   0.23510   0.23264  -0.1211  0.0161  1.0000  -6.2223   0.0000   0.2493
  31.000   1.4587   0.24520   0.24277  -0.1293  0.0113  1.0000  -6.1876   0.0000   0.2542
  31.500   1.4414   0.25450   0.25211  -0.1371  0.0083  1.0000  -6.1742   0.0000   0.2587
  32.000   1.4339   0.26185   0.25952  -0.1437  0.0071  1.0000  -6.2241   0.0000   0.2618
  32.500   1.4322   0.26798   0.26569  -0.1497  0.0064  1.0000  -6.3146   0.0000   0.2639
  33.000   1.4261   0.27501   0.27279  -0.1563  0.0059  1.0000  -6.3637   0.0000   0.2669
  33.500   1.4237   0.28118   0.27904  -0.1625  0.0057  1.0000  -6.4402   0.0000   0.2692
  34.000   1.4247   0.28651   0.28442  -0.1682  0.0054  1.0000  -6.5437   0.0000   0.2709
  34.500   1.4190   0.29329   0.29126  -0.1749  0.0051  1.0000  -6.5828   0.0000   0.2738
  35.000   1.4179   0.29893   0.29694  -0.1809  0.0047  1.0000  -6.6614   0.0000   0.2759
  35.500   1.4158   0.30476   0.30284  -0.1872  0.0045  1.0000  -6.7345   0.0000   0.2781
  36.000   1.4146   0.31020   0.30835  -0.1932  0.0044  1.0000  -6.8158   0.0000   0.2801
  36.500   1.4171   0.31468   0.31287  -0.1988  0.0042  0.9999  -6.9358   0.0000   0.2812
  37.000   1.4142   0.32040   0.31865  -0.2051  0.0041  0.9999  -6.9927   0.0000   0.2835
  37.500   1.4154   0.32499   0.32328  -0.2109  0.0039  0.9999  -7.0993   0.0000   0.2848
  38.000   1.4110   0.33095   0.32928  -0.2175  0.0036  0.9999  -7.1394   0.0000   0.2873
  38.500   1.4085   0.33631   0.33470  -0.2238  0.0033  0.9999  -7.2089   0.0000   0.2894
  39.000   1.4107   0.34019   0.33862  -0.2293  0.0032  0.9999  -7.3455   0.0000   0.2902
  39.500   1.4133   0.34389   0.34235  -0.2347  0.0031  0.9999  -7.4891   0.0000   0.2909
  40.000   1.4121   0.34851   0.34702  -0.2407  0.0030  0.9999  -7.5758   0.0000   0.2924
  40.500   1.4138   0.35214   0.35068  -0.2462  0.0029  0.9998  -7.7087   0.0000   0.2930
  41.000   1.4112   0.35689   0.35547  -0.2524  0.0027  0.9998  -7.7721   0.0000   0.2947
  41.500   1.4113   0.36069   0.35929  -0.2581  0.0025  0.9998  -7.8805   0.0000   0.2956
  42.000   1.4080   0.36511   0.36374  -0.2644  0.0023  0.9998  -7.9244   0.0000   0.2974
  42.500   1.4103   0.36740   0.36606  -0.2697  0.0022  0.9998  -8.0730   0.0000   0.2975
  43.000   1.4112   0.36977   0.36847  -0.2752  0.0022  0.9998  -8.1986   0.0000   0.2979
  43.500   1.4104   0.37214   0.37088  -0.2809  0.0021  0.9998  -8.2941   0.0000   0.2986
  44.000   1.4115   0.37391   0.37268  -0.2863  0.0020  0.9997  -8.4296   0.0000   0.2987
  44.500   1.4093   0.37637   0.37518  -0.2922  0.0019  0.9997  -8.4987   0.0000   0.2996
  45.000   1.4088   0.37824   0.37706  -0.2977  0.0018  0.9997  -8.6084   0.0000   0.2999
  45.500   1.4051   0.38087   0.37971  -0.3037  0.0016  0.9997  -8.6547   0.0000   0.3010


