xflr5 v6.33

 Calculated polar for: Bell A821201 v4

 1 1 Reynolds number fixed          Mach number fixed         

 xtrf =   1.000 (top)        1.000 (bottom)
 Mach =   0.000     Re =     1.000 e 6     Ncrit =   9.000

  alpha     CL        CD       CDp       Cm    Top Xtr Bot Xtr   Cpmin    Chinge    XCp    
 ------- -------- --------- --------- -------- ------- ------- -------- --------- ---------
 -30.000  -0.3798   0.25650   0.25487   0.0119  1.0000  0.0094  -0.9642   0.0000   0.2357
 -29.500  -0.3719   0.25253   0.25089   0.0095  1.0000  0.0100  -0.9577   0.0000   0.2299
 -29.000  -0.3659   0.24731   0.24566   0.0070  1.0000  0.0108  -1.0493   0.0000   0.2230
 -28.500  -0.3643   0.24124   0.23958   0.0040  1.0000  0.0109  -1.2234   0.0000   0.2141
 -28.000  -0.3546   0.23723   0.23557   0.0021  1.0000  0.0110  -1.1937   0.0000   0.2090
 -27.500  -0.3440   0.23415   0.23250   0.0001  1.0000  0.0112  -1.1250   0.0000   0.2035
 -27.000  -0.3340   0.23087   0.22923  -0.0020  1.0000  0.0114  -1.0807   0.0000   0.1971
 -26.500  -0.3245   0.22734   0.22570  -0.0042  1.0000  0.0118  -1.0593   0.0000   0.1900
 -26.000  -0.3153   0.22355   0.22192  -0.0064  1.0000  0.0122  -1.0537   0.0000   0.1824
 -25.500  -0.3067   0.21944   0.21781  -0.0086  1.0000  0.0130  -1.0691   0.0000   0.1743
 -24.500  -0.2982   0.20833   0.20669  -0.0135  1.0000  0.0140  -1.3030   0.0000   0.1552
 -24.000  -0.2762   0.20345   0.20181  -0.0186  0.9990  0.0142  -1.2143   0.0000   0.1309
 -23.500  -0.2451   0.19636   0.19469  -0.0275  0.9949  0.0146  -1.1558   0.0000   0.0814
 -21.000  -0.3826   0.20710   0.20514  -0.0291  0.9901  0.0173  -2.0816   0.0000   0.1015
 -20.500  -0.3653   0.20212   0.20018  -0.0315  0.9767  0.0176  -1.9889   0.0000   0.0908
 -20.000  -0.2779   0.18816   0.18530  -0.0574  0.7875  0.0187  -1.8799   0.0000  -0.0475
 -19.500  -0.2842   0.17463   0.17163  -0.0639  0.7574  0.0205  -2.3449   0.0000  -0.0632
 -19.000  -0.2638   0.16975   0.16638  -0.0674  0.6727  0.0208  -2.2452   0.0000  -0.0972
 -18.500  -0.2453   0.16441   0.16091  -0.0708  0.6511  0.0211  -2.1725   0.0000  -0.1339
 -18.000  -0.2304   0.15821   0.15465  -0.0744  0.6400  0.0216  -2.1451   0.0000  -0.1712
 -17.500  -0.2863   0.13366   0.13014  -0.0838  0.6399  0.0213  -3.0709   0.0000  -0.1253
 -16.500  -0.6952   0.05307   0.04735  -0.1146  0.6650  0.0157  -6.7437   0.0000   0.0429
 -16.000  -0.6778   0.04951   0.04361  -0.1155  0.6473  0.0158  -6.5452   0.0000   0.0382
 -15.500  -0.6561   0.04644   0.04036  -0.1161  0.6347  0.0159  -6.3256   0.0000   0.0321
 -15.000  -0.6353   0.04347   0.03729  -0.1163  0.6293  0.0160  -6.1077   0.0000   0.0266
 -14.500  -0.6105   0.04088   0.03459  -0.1165  0.6236  0.0162  -5.8728   0.0000   0.0193
 -14.000  -0.5849   0.03833   0.03193  -0.1168  0.6176  0.0163  -5.6364   0.0000   0.0107
 -13.500  -0.5550   0.03609   0.02957  -0.1173  0.6114  0.0164  -5.3844   0.0000  -0.0009
 -13.000  -0.5266   0.03388   0.02731  -0.1173  0.6094  0.0165  -5.1392   0.0000  -0.0123
 -12.500  -0.4961   0.03180   0.02516  -0.1176  0.6070  0.0166  -4.8889   0.0000  -0.0266
 -12.000  -0.4616   0.02988   0.02318  -0.1182  0.6043  0.0168  -4.6278   0.0000  -0.0461
 -11.500  -0.4244   0.02799   0.02123  -0.1193  0.6015  0.0169  -4.3620   0.0000  -0.0723
 -11.000  -0.3941   0.02598   0.01915  -0.1195  0.5988  0.0171  -4.1345   0.0000  -0.0949
 -10.500  -0.3654   0.02410   0.01721  -0.1192  0.5960  0.0175  -3.9090   0.0000  -0.1183
 -10.000  -0.3320   0.02259   0.01566  -0.1188  0.5928  0.0181  -3.6616   0.0000  -0.1513
  -9.500  -0.2963   0.02124   0.01426  -0.1186  0.5892  0.0187  -3.4117   0.0000  -0.1955
  -9.000  -0.2662   0.01993   0.01292  -0.1170  0.5875  0.0194  -3.1853   0.0000  -0.2365
  -8.500  -0.2372   0.01869   0.01167  -0.1148  0.5864  0.0201  -2.9667   0.0000  -0.2831
  -8.000  -0.2143   0.01729   0.01027  -0.1118  0.5850  0.0214  -2.8015   0.0000  -0.3217
  -7.500  -0.1905   0.01605   0.00901  -0.1086  0.5833  0.0234  -2.6313   0.0000  -0.3721
  -6.500  -0.1768   0.01334   0.00637  -0.0958  0.5795  0.0423  -2.3798   0.0000  -0.3386
  -6.000  -0.1777   0.01259   0.00576  -0.0859  0.5773  0.0736  -2.2592   0.0000  -0.2761
  -5.500  -0.1577   0.01181   0.00519  -0.0798  0.5753  0.1195  -2.0879   0.0000  -0.2991
  -5.000  -0.1382   0.01082   0.00456  -0.0736  0.5730  0.2013  -1.9182   0.0000  -0.3265
  -4.500  -0.1184   0.00970   0.00389  -0.0673  0.5685  0.3246  -1.7503   0.0000  -0.3640
  -4.000  -0.0998   0.00855   0.00339  -0.0605  0.5643  0.4938  -1.5862   0.0000  -0.4036
  -3.500  -0.0501   0.00853   0.00343  -0.0589  0.5620  0.5309  -1.3607   0.0000  -1.0035
  -3.000   0.0030   0.00867   0.00356  -0.0580  0.5597  0.5484  -1.1371   0.0000  20.3491
  -2.500   0.0553   0.00898   0.00382  -0.0568  0.5564  0.5606  -0.9244   0.0000   1.3199
  -2.000   0.1087   0.00918   0.00408  -0.0558  0.5525  0.5735  -0.8794   0.0000   0.7782
  -1.500   0.1626   0.00943   0.00428  -0.0550  0.5488  0.5801  -0.9298   0.0000   0.5936
  -1.000   0.2202   0.00962   0.00438  -0.0553  0.5439  0.5820  -0.9824   0.0000   0.5014
  -0.500   0.2730   0.00954   0.00428  -0.0546  0.5413  0.5847  -1.0327   0.0000   0.4473
   0.000   0.3232   0.00934   0.00408  -0.0534  0.5383  0.5885  -1.0847   0.0000   0.4102
   0.500   0.3737   0.00923   0.00396  -0.0522  0.5337  0.5905  -1.1373   0.0000   0.3830
   1.000   0.4222   0.00912   0.00382  -0.0505  0.5283  0.5921  -1.1980   0.0000   0.3618
   1.500   0.4708   0.00911   0.00375  -0.0490  0.5207  0.5935  -1.2598   0.0000   0.3451
   2.000   0.5146   0.00898   0.00365  -0.0464  0.5155  0.5951  -1.3188   0.0000   0.3301
   2.500   0.5590   0.00891   0.00356  -0.0440  0.5079  0.5969  -1.3786   0.0000   0.3177
   3.000   0.6038   0.00891   0.00352  -0.0418  0.4991  0.5983  -1.4422   0.0000   0.3073
   3.500   0.6500   0.00893   0.00352  -0.0399  0.4862  0.5997  -1.5076   0.0000   0.2987
   4.000   0.6918   0.00908   0.00360  -0.0372  0.4666  0.6010  -1.5701   0.0000   0.2902
   4.500   0.7299   0.00941   0.00380  -0.0339  0.4402  0.6023  -1.6297   0.0000   0.2821
   5.000   0.7688   0.00984   0.00411  -0.0310  0.4145  0.6036  -1.6899   0.0000   0.2752
   5.500   0.8071   0.01033   0.00451  -0.0281  0.3930  0.6048  -1.7604   0.0000   0.2689
   6.000   0.8483   0.01084   0.00494  -0.0259  0.3746  0.6055  -1.8346   0.0000   0.2639
   6.500   0.8936   0.01136   0.00540  -0.0248  0.3580  0.6066  -1.9131   0.0000   0.2604
   7.000   0.9473   0.01193   0.00592  -0.0258  0.3425  0.6093  -1.9997   0.0000   0.2592
   7.500   1.0031   0.01252   0.00650  -0.0273  0.3291  0.6117  -2.0890   0.0000   0.2586
   8.000   1.0603   0.01313   0.00713  -0.0292  0.3177  0.6139  -2.1805   0.0000   0.2581
   8.500   1.1133   0.01400   0.00798  -0.0308  0.3044  0.6160  -2.2682   0.0000   0.2575
   9.000   1.1708   0.01483   0.00882  -0.0333  0.2933  0.6181  -2.3739   0.0000   0.2575
   9.500   1.2234   0.01587   0.00989  -0.0353  0.2825  0.6203  -2.4826   0.0000   0.2570
  10.000   1.2623   0.01733   0.01135  -0.0354  0.2713  0.6229  -2.5757   0.0000   0.2553
  10.500   1.3004   0.01881   0.01288  -0.0354  0.2630  0.6252  -2.6685   0.0000   0.2535
  11.000   1.3284   0.02108   0.01517  -0.0350  0.2537  0.6271  -2.7477   0.0000   0.2516
  11.500   1.3578   0.02321   0.01736  -0.0346  0.2463  0.6288  -2.8299   0.0000   0.2496
  12.000   1.3819   0.02585   0.02004  -0.0342  0.2379  0.6315  -2.9083   0.0000   0.2478
  12.500   1.4043   0.02871   0.02297  -0.0340  0.2300  0.6360  -2.9840   0.0000   0.2461
  13.000   1.4240   0.03175   0.02608  -0.0335  0.2226  0.6400  -3.0603   0.0000   0.2443
  13.500   1.4365   0.03527   0.02965  -0.0327  0.2146  0.6437  -3.1340   0.0000   0.2423
  14.000   1.4552   0.03831   0.03277  -0.0321  0.2078  0.6476  -3.2229   0.0000   0.2404
  14.500   1.4628   0.04229   0.03676  -0.0312  0.1997  0.6510  -3.2926   0.0000   0.2384
  15.000   1.4849   0.04520   0.03977  -0.0312  0.1947  0.6556  -3.3896   0.0000   0.2369
  15.500   1.4961   0.04913   0.04376  -0.0309  0.1874  0.6629  -3.4697   0.0000   0.2353
  16.000   1.5138   0.05247   0.04721  -0.0308  0.1818  0.6703  -3.5667   0.0000   0.2338
  17.000   1.5389   0.06038   0.05527  -0.0309  0.1686  0.6897  -3.7449   0.0000   0.2310
  17.500   1.5534   0.06428   0.05929  -0.0313  0.1630  0.7043  -3.8408   0.0000   0.2297
  18.500   1.5708   0.07363   0.06896  -0.0326  0.1512  0.7646  -4.0065   0.0000   0.2277
  19.000   1.5597   0.07867   0.07448  -0.0298  0.1456  0.9956  -4.0517   0.0000   0.2246
  19.500   1.5968   0.08480   0.08071  -0.0373  0.1393  1.0000  -4.1829   0.0000   0.2276
  20.000   1.5922   0.09111   0.08708  -0.0383  0.1333  1.0000  -4.2335   0.0000   0.2268
  20.500   1.5899   0.09719   0.09325  -0.0394  0.1282  1.0000  -4.2870   0.0000   0.2261
  21.000   1.5849   0.10373   0.09986  -0.0409  0.1227  1.0000  -4.3367   0.0000   0.2257
  21.500   1.5752   0.11093   0.10715  -0.0427  0.1175  1.0000  -4.3722   0.0000   0.2255
  22.000   1.5690   0.11771   0.11400  -0.0447  0.1127  1.0000  -4.4143   0.0000   0.2254
  22.500   1.5543   0.12574   0.12211  -0.0474  0.1078  1.0000  -4.4610   0.0000   0.2258
  23.000   1.5530   0.13198   0.12844  -0.0499  0.1037  1.0000  -4.5911   0.0000   0.2260
  23.500   1.5344   0.14065   0.13715  -0.0534  0.0982  1.0000  -4.6554   0.0000   0.2271
  24.000   1.5330   0.14699   0.14362  -0.0565  0.0946  1.0000  -4.7882   0.0000   0.2276
  24.500   1.5192   0.15517   0.15186  -0.0607  0.0898  1.0000  -4.8670   0.0000   0.2290
  25.000   1.5205   0.16112   0.15790  -0.0641  0.0860  1.0000  -5.0077   0.0000   0.2296
  25.500   1.5105   0.16877   0.16559  -0.0686  0.0817  1.0000  -5.0967   0.0000   0.2311
  26.000   1.5059   0.17559   0.17251  -0.0729  0.0782  1.0000  -5.2065   0.0000   0.2325
  26.500   1.5014   0.18243   0.17940  -0.0775  0.0745  1.0000  -5.3143   0.0000   0.2339
  27.000   1.4987   0.18895   0.18599  -0.0821  0.0713  1.0000  -5.4286   0.0000   0.2353
  27.500   1.4956   0.19557   0.19269  -0.0870  0.0682  1.0000  -5.5380   0.0000   0.2369
  28.000   1.4922   0.20218   0.19933  -0.0920  0.0648  1.0000  -5.6441   0.0000   0.2386
  28.500   1.4898   0.20864   0.20589  -0.0972  0.0617  1.0000  -5.7526   0.0000   0.2403
  29.000   1.4827   0.21589   0.21316  -0.1030  0.0582  1.0000  -5.8390   0.0000   0.2427
  29.500   1.4846   0.22146   0.21883  -0.1079  0.0555  1.0000  -5.9763   0.0000   0.2440
  30.000   1.4773   0.22863   0.22603  -0.1140  0.0522  1.0000  -6.0547   0.0000   0.2466
  30.500   1.4792   0.23413   0.23163  -0.1192  0.0494  1.0000  -6.1881   0.0000   0.2479
  31.000   1.4712   0.24145   0.23899  -0.1257  0.0461  1.0000  -6.2530   0.0000   0.2508
  31.500   1.4643   0.24857   0.24618  -0.1321  0.0425  1.0000  -6.3199   0.0000   0.2536
  32.000   1.4594   0.25531   0.25297  -0.1385  0.0387  1.0000  -6.3953   0.0000   0.2561
  32.500   1.4496   0.26303   0.26073  -0.1456  0.0342  1.0000  -6.4275   0.0000   0.2596
  33.000   1.4335   0.27214   0.26985  -0.1536  0.0288  1.0000  -6.3992   0.0000   0.2643
  33.500   1.4160   0.28164   0.27935  -0.1621  0.0235  1.0000  -6.3426   0.0000   0.2695
  34.000   1.3961   0.29192   0.28964  -0.1711  0.0182  1.0000  -6.2422   0.0000   0.2755
  34.500   1.3816   0.30115   0.29887  -0.1794  0.0138  1.0000  -6.1722   0.0000   0.2808
  35.500   1.3722   0.31480   0.31254  -0.1931  0.0101  1.0000  -6.2131   0.0000   0.2871
  36.000   1.3715   0.32050   0.31823  -0.1994  0.0092  1.0000  -6.2691   0.0000   0.2894
  36.500   1.3749   0.32494   0.32273  -0.2050  0.0087  1.0000  -6.3723   0.0000   0.2905
  37.000   1.3783   0.32923   0.32704  -0.2105  0.0081  1.0000  -6.4885   0.0000   0.2916
  37.500   1.3833   0.33293   0.33071  -0.2158  0.0076  1.0000  -6.6285   0.0000   0.2922
  38.000   1.3865   0.33696   0.33481  -0.2214  0.0072  1.0000  -6.7445   0.0000   0.2931
  38.500   1.3904   0.34072   0.33862  -0.2268  0.0069  1.0000  -6.8843   0.0000   0.2938
  39.000   1.3942   0.34428   0.34221  -0.2322  0.0066  1.0000  -7.0271   0.0000   0.2943
  39.500   1.3988   0.34739   0.34532  -0.2374  0.0063  1.0000  -7.1867   0.0000   0.2945
  40.000   1.4065   0.34948   0.34740  -0.2421  0.0059  1.0000  -7.3960   0.0000   0.2938
  40.500   1.4060   0.35382   0.35184  -0.2480  0.0057  1.0000  -7.4786   0.0000   0.2952
  41.000   1.4069   0.35770   0.35578  -0.2538  0.0054  1.0000  -7.5837   0.0000   0.2961
  41.500   1.4077   0.36111   0.35925  -0.2595  0.0052  1.0000  -7.6882   0.0000   0.2969
  42.000   1.4101   0.36381   0.36197  -0.2649  0.0050  1.0000  -7.8271   0.0000   0.2972
  42.500   1.4147   0.36546   0.36361  -0.2699  0.0047  1.0000  -8.0124   0.0000   0.2967
  43.000   1.4140   0.36840   0.36662  -0.2758  0.0045  1.0000  -8.0923   0.0000   0.2976
  43.500   1.4057   0.37341   0.37177  -0.2829  0.0042  1.0000  -8.0145   0.0000   0.3006
  44.000   1.3972   0.37831   0.37679  -0.2900  0.0039  1.0000  -7.9155   0.0000   0.3037
  44.500   1.3926   0.38187   0.38041  -0.2964  0.0037  1.0000  -7.9180   0.0000   0.3054
  45.000   1.3938   0.38356   0.38211  -0.3017  0.0035  1.0000  -8.0604   0.0000   0.3053
  48.500   0.6931   0.48481   0.48405  -0.1887  0.0001  1.0000  -1.0957   0.0000   0.4059
  49.000   0.6890   0.48520   0.48445  -0.1908  0.0000  1.0000  -1.1457   0.0000   0.4069
  49.500   0.6843   0.49035   0.48961  -0.1924  0.0000  1.0000  -1.0681   0.0000   0.4086
  50.000   0.6797   0.49532   0.49459  -0.1939  0.0000  1.0000  -0.9821   0.0000   0.4101


