xflr5 v6.33

 Calculated polar for: Bell A821201 v4

 1 1 Reynolds number fixed          Mach number fixed         

 xtrf =   1.000 (top)        1.000 (bottom)
 Mach =   0.000     Re =     2.200 e 6     Ncrit =   9.000

  alpha     CL        CD       CDp       Cm    Top Xtr Bot Xtr   Cpmin    Chinge    XCp    
 ------- -------- --------- --------- -------- ------- ------- -------- --------- ---------
 -22.500  -0.7822   0.13159   0.12908  -0.0654  0.9926  0.0111  -8.4437   0.0000   0.1099
 -22.000  -0.8157   0.11967   0.11697  -0.0710  0.9904  0.0112  -8.7166   0.0000   0.1091
 -21.500  -0.8404   0.10886   0.10598  -0.0764  0.9890  0.0112  -8.8753   0.0000   0.1075
 -21.000  -0.8577   0.09890   0.09585  -0.0818  0.9862  0.0113  -8.9534   0.0000   0.1049
 -20.500  -0.8707   0.08995   0.08676  -0.0864  0.9790  0.0114  -8.9721   0.0000   0.1029
 -20.000  -0.8443   0.07945   0.07546  -0.1002  0.8070  0.0115  -8.8147   0.0000   0.0838
 -19.500  -0.8478   0.07280   0.06855  -0.1031  0.7742  0.0115  -8.7291   0.0000   0.0825
 -19.000  -0.8479   0.06678   0.06231  -0.1055  0.7395  0.0116  -8.6106   0.0000   0.0812
 -18.500  -0.8427   0.06140   0.05653  -0.1079  0.6552  0.0117  -8.4546   0.0000   0.0790
 -18.000  -0.8355   0.05653   0.05147  -0.1095  0.6335  0.0117  -8.2777   0.0000   0.0773
 -17.500  -0.8252   0.05223   0.04705  -0.1105  0.6222  0.0118  -8.0777   0.0000   0.0756
 -17.000  -0.8118   0.04836   0.04305  -0.1113  0.6107  0.0119  -7.8577   0.0000   0.0735
 -16.500  -0.7970   0.04481   0.03941  -0.1117  0.6059  0.0119  -7.6285   0.0000   0.0715
 -16.000  -0.7799   0.04155   0.03606  -0.1119  0.6004  0.0120  -7.3875   0.0000   0.0691
 -15.500  -0.7578   0.03882   0.03323  -0.1120  0.5938  0.0121  -7.1223   0.0000   0.0655
 -15.000  -0.7368   0.03609   0.03041  -0.1119  0.5881  0.0122  -6.8643   0.0000   0.0622
 -14.500  -0.7120   0.03377   0.02804  -0.1115  0.5867  0.0122  -6.5903   0.0000   0.0581
 -14.000  -0.6880   0.03143   0.02565  -0.1111  0.5850  0.0123  -6.3229   0.0000   0.0539
 -13.500  -0.6601   0.02945   0.02362  -0.1106  0.5830  0.0124  -6.0413   0.0000   0.0483
 -13.000  -0.6327   0.02744   0.02156  -0.1101  0.5807  0.0125  -5.7671   0.0000   0.0423
 -12.500  -0.6023   0.02575   0.01982  -0.1096  0.5783  0.0126  -5.4834   0.0000   0.0347
 -12.000  -0.5717   0.02404   0.01805  -0.1091  0.5756  0.0127  -5.2049   0.0000   0.0261
 -11.500  -0.5370   0.02255   0.01651  -0.1089  0.5723  0.0128  -4.9155   0.0000   0.0142
 -11.000  -0.4990   0.02106   0.01497  -0.1092  0.5689  0.0129  -4.6216   0.0000  -0.0023
 -10.500  -0.4519   0.01973   0.01359  -0.1110  0.5656  0.0131  -4.3046   0.0000  -0.0300
 -10.000  -0.4085   0.01841   0.01226  -0.1119  0.5648  0.0132  -4.0061   0.0000  -0.0593
  -9.500  -0.3716   0.01715   0.01098  -0.1113  0.5641  0.0134  -3.7336   0.0000  -0.0857
  -9.000  -0.3357   0.01597   0.00978  -0.1103  0.5632  0.0135  -3.4693   0.0000  -0.1158
  -8.500  -0.3006   0.01487   0.00867  -0.1089  0.5622  0.0137  -3.2108   0.0000  -0.1508
  -8.000  -0.2715   0.01365   0.00742  -0.1066  0.5611  0.0141  -2.9910   0.0000  -0.1820
  -7.500  -0.2547   0.01237   0.00611  -0.1022  0.5598  0.0148  -2.8337   0.0000  -0.1895
  -7.000  -0.2345   0.01171   0.00544  -0.0963  0.5584  0.0157  -2.6556   0.0000  -0.1991
  -6.500  -0.2189   0.01131   0.00503  -0.0889  0.5567  0.0166  -2.4884   0.0000  -0.1935
  -6.000  -0.1874   0.01089   0.00462  -0.0844  0.5546  0.0198  -2.2932   0.0000  -0.2403
  -5.500  -0.1567   0.01036   0.00417  -0.0798  0.5515  0.0373  -2.0999   0.0000  -0.3021
  -5.000  -0.1245   0.00984   0.00377  -0.0755  0.5451  0.0699  -1.9014   0.0000  -0.4041
  -4.500  -0.0893   0.00928   0.00340  -0.0717  0.5423  0.1129  -1.6984   0.0000  -0.6117
  -4.000  -0.0583   0.00852   0.00294  -0.0670  0.5415  0.1886  -1.5097   0.0000  -0.9774
  -3.500  -0.0299   0.00765   0.00246  -0.0618  0.5399  0.2940  -1.3314   0.0000  -1.9419
  -3.000  -0.0082   0.00653   0.00190  -0.0552  0.5375  0.4489  -1.1711   0.0000  -6.8767
  -2.500   0.0373   0.00623   0.00184  -0.0530  0.5351  0.5241  -0.9694   0.0000   1.7343
  -2.000   0.0905   0.00626   0.00187  -0.0521  0.5324  0.5386  -0.8711   0.0000   0.8440
  -1.500   0.1416   0.00628   0.00190  -0.0509  0.5291  0.5499  -0.9197   0.0000   0.6156
  -1.000   0.1932   0.00642   0.00201  -0.0497  0.5242  0.5573  -0.9689   0.0000   0.5079
  -0.500   0.2457   0.00655   0.00211  -0.0488  0.5205  0.5605  -1.0191   0.0000   0.4456
   0.000   0.3004   0.00650   0.00205  -0.0484  0.5169  0.5619  -1.0732   0.0000   0.4059
   0.500   0.3559   0.00644   0.00196  -0.0482  0.5106  0.5654  -1.1289   0.0000   0.3788
   1.000   0.4085   0.00648   0.00197  -0.0475  0.5023  0.5693  -1.1909   0.0000   0.3582
   1.500   0.4645   0.00651   0.00200  -0.0475  0.4967  0.5713  -1.2580   0.0000   0.3431
   2.000   0.5177   0.00662   0.00204  -0.0470  0.4834  0.5728  -1.3236   0.0000   0.3307
   2.500   0.5701   0.00679   0.00213  -0.0464  0.4632  0.5742  -1.3906   0.0000   0.3204
   3.000   0.6205   0.00708   0.00229  -0.0455  0.4346  0.5754  -1.4588   0.0000   0.3115
   3.500   0.6685   0.00749   0.00255  -0.0442  0.4040  0.5766  -1.5254   0.0000   0.3036
   4.000   0.7190   0.00784   0.00280  -0.0435  0.3827  0.5778  -1.5946   0.0000   0.2972
   4.500   0.7705   0.00820   0.00308  -0.0430  0.3635  0.5789  -1.6651   0.0000   0.2919
   5.000   0.8233   0.00858   0.00338  -0.0430  0.3463  0.5801  -1.7398   0.0000   0.2876
   5.500   0.8804   0.00889   0.00365  -0.0438  0.3346  0.5810  -1.8292   0.0000   0.2845
   6.000   0.9386   0.00926   0.00398  -0.0450  0.3216  0.5817  -1.9203   0.0000   0.2820
   6.500   0.9975   0.00970   0.00435  -0.0465  0.3076  0.5822  -2.0131   0.0000   0.2800
   7.000   1.0589   0.01007   0.00471  -0.0485  0.2968  0.5827  -2.1095   0.0000   0.2785
   7.500   1.1286   0.01055   0.00513  -0.0526  0.2842  0.5834  -2.2145   0.0000   0.2786
   8.000   1.1913   0.01102   0.00557  -0.0552  0.2732  0.5861  -2.3141   0.0000   0.2776
   8.500   1.2452   0.01146   0.00601  -0.0560  0.2636  0.5889  -2.4127   0.0000   0.2754
   9.000   1.2895   0.01211   0.00664  -0.0551  0.2524  0.5917  -2.5146   0.0000   0.2723
   9.500   1.3359   0.01263   0.00719  -0.0546  0.2460  0.5942  -2.6202   0.0000   0.2696
  10.000   1.3734   0.01347   0.00801  -0.0528  0.2362  0.5967  -2.7158   0.0000   0.2663
  10.500   1.4120   0.01429   0.00886  -0.0514  0.2290  0.5989  -2.8133   0.0000   0.2633
  11.000   1.4416   0.01557   0.01013  -0.0491  0.2197  0.6008  -2.8997   0.0000   0.2599
  11.500   1.4733   0.01690   0.01150  -0.0475  0.2129  0.6026  -2.9927   0.0000   0.2571
  12.000   1.4964   0.01901   0.01361  -0.0457  0.2047  0.6040  -3.0745   0.0000   0.2543
  12.500   1.5219   0.02118   0.01583  -0.0445  0.1983  0.6052  -3.1629   0.0000   0.2519
  13.000   1.5447   0.02358   0.01827  -0.0433  0.1928  0.6060  -3.2560   0.0000   0.2496
  13.500   1.5583   0.02679   0.02152  -0.0420  0.1845  0.6109  -3.3403   0.0000   0.2472
  14.000   1.5818   0.02940   0.02422  -0.0414  0.1809  0.6160  -3.4417   0.0000   0.2453
  14.500   1.5920   0.03298   0.02784  -0.0402  0.1735  0.6200  -3.5218   0.0000   0.2431
  15.000   1.6050   0.03635   0.03127  -0.0392  0.1674  0.6237  -3.6109   0.0000   0.2411
  15.500   1.6130   0.04022   0.03517  -0.0381  0.1604  0.6268  -3.6944   0.0000   0.2390
  16.000   1.6212   0.04411   0.03910  -0.0372  0.1541  0.6290  -3.7793   0.0000   0.2370
  16.500   1.6345   0.04764   0.04268  -0.0367  0.1491  0.6363  -3.8776   0.0000   0.2352
  17.000   1.6391   0.05206   0.04716  -0.0361  0.1427  0.6439  -3.9578   0.0000   0.2335
  17.500   1.6590   0.05511   0.05030  -0.0360  0.1394  0.6510  -4.0702   0.0000   0.2319
  18.000   1.6617   0.05990   0.05514  -0.0358  0.1325  0.6614  -4.1459   0.0000   0.2303
  18.500   1.6720   0.06403   0.05937  -0.0358  0.1278  0.6736  -4.2374   0.0000   0.2289
  19.000   1.6776   0.06868   0.06408  -0.0360  0.1213  0.6896  -4.3184   0.0000   0.2276
  19.500   1.6806   0.07379   0.06930  -0.0364  0.1161  0.7100  -4.3922   0.0000   0.2264
  20.000   1.6771   0.07969   0.07532  -0.0371  0.1102  0.7402  -4.4501   0.0000   0.2254
  20.500   1.6854   0.08456   0.08041  -0.0383  0.1062  0.8020  -4.5373   0.0000   0.2245
  21.000   1.6758   0.09060   0.08689  -0.0377  0.1021  0.9986  -4.5860   0.0000   0.2228
  21.500   1.6831   0.09816   0.09453  -0.0428  0.0968  1.0000  -4.6614   0.0000   0.2242
  22.000   1.6717   0.10532   0.10176  -0.0443  0.0922  1.0000  -4.7463   0.0000   0.2238
  22.500   1.6591   0.11271   0.10923  -0.0462  0.0880  1.0000  -4.8522   0.0000   0.2236
  23.000   1.6486   0.11992   0.11654  -0.0484  0.0844  1.0000  -4.9659   0.0000   0.2236
  23.500   1.6309   0.12819   0.12489  -0.0513  0.0800  1.0000  -5.0487   0.0000   0.2240
  24.000   1.6196   0.13565   0.13244  -0.0543  0.0766  1.0000  -5.1536   0.0000   0.2245
  24.500   1.6004   0.14426   0.14112  -0.0580  0.0723  1.0000  -5.2220   0.0000   0.2255
  25.000   1.5938   0.15115   0.14810  -0.0614  0.0692  1.0000  -5.3399   0.0000   0.2262
  25.500   1.5794   0.15926   0.15625  -0.0657  0.0652  1.0000  -5.4195   0.0000   0.2276
  26.000   1.5732   0.16614   0.16323  -0.0698  0.0628  1.0000  -5.5329   0.0000   0.2286
  26.500   1.5585   0.17432   0.17147  -0.0747  0.0597  1.0000  -5.6027   0.0000   0.2304
  27.000   1.5515   0.18138   0.17863  -0.0794  0.0572  1.0000  -5.7049   0.0000   0.2319
  27.500   1.5488   0.18773   0.18503  -0.0839  0.0543  1.0000  -5.8263   0.0000   0.2331
  28.000   1.5386   0.19533   0.19269  -0.0893  0.0514  1.0000  -5.9054   0.0000   0.2351
  28.500   1.5291   0.20284   0.20027  -0.0949  0.0483  1.0000  -5.9910   0.0000   0.2373
  29.000   1.5269   0.20909   0.20656  -0.1000  0.0453  1.0000  -6.1144   0.0000   0.2388
  29.500   1.5153   0.21696   0.21449  -0.1062  0.0419  1.0000  -6.1783   0.0000   0.2415
  30.000   1.5067   0.22424   0.22182  -0.1122  0.0386  1.0000  -6.2554   0.0000   0.2439
  30.500   1.4998   0.23119   0.22880  -0.1183  0.0341  1.0000  -6.3392   0.0000   0.2463
  31.000   1.4790   0.24085   0.23848  -0.1262  0.0286  1.0000  -6.3221   0.0000   0.2508
  31.500   1.4636   0.24961   0.24726  -0.1337  0.0238  1.0000  -6.3296   0.0000   0.2548
  32.000   1.4477   0.25857   0.25624  -0.1414  0.0195  1.0000  -6.3224   0.0000   0.2591
  32.500   1.4308   0.26785   0.26554  -0.1494  0.0149  1.0000  -6.2939   0.0000   0.2638
  33.000   1.4114   0.27786   0.27556  -0.1580  0.0103  1.0000  -6.2278   0.0000   0.2694
  33.500   1.4007   0.28606   0.28381  -0.1655  0.0085  1.0000  -6.2204   0.0000   0.2735
  34.000   1.3928   0.29363   0.29143  -0.1727  0.0075  1.0000  -6.2273   0.0000   0.2771
  34.500   1.3898   0.30000   0.29788  -0.1792  0.0070  1.0000  -6.2742   0.0000   0.2798
  35.000   1.3888   0.30584   0.30375  -0.1854  0.0065  1.0000  -6.3433   0.0000   0.2821
  35.500   1.3838   0.31264   0.31060  -0.1922  0.0060  1.0000  -6.3658   0.0000   0.2852
  36.000   1.3842   0.31790   0.31594  -0.1982  0.0058  1.0000  -6.4459   0.0000   0.2871
  36.500   1.3869   0.32249   0.32057  -0.2038  0.0056  1.0000  -6.5526   0.0000   0.2883
  37.000   1.3865   0.32779   0.32593  -0.2099  0.0053  1.0000  -6.6195   0.0000   0.2903
  37.500   1.3880   0.33246   0.33062  -0.2157  0.0050  1.0000  -6.7197   0.0000   0.2917
  38.000   1.3875   0.33755   0.33574  -0.2219  0.0046  1.0000  -6.7901   0.0000   0.2935
  38.500   1.3908   0.34140   0.33964  -0.2273  0.0045  1.0000  -6.9270   0.0000   0.2942
  39.000   1.3942   0.34511   0.34339  -0.2327  0.0043  1.0000  -7.0687   0.0000   0.2949
  39.500   1.3951   0.34935   0.34767  -0.2385  0.0041  1.0000  -7.1741   0.0000   0.2960
  40.000   1.3979   0.35288   0.35124  -0.2439  0.0040  1.0000  -7.3114   0.0000   0.2966
  40.500   1.3985   0.35694   0.35533  -0.2497  0.0038  1.0000  -7.4152   0.0000   0.2977
  41.000   1.4000   0.36056   0.35896  -0.2553  0.0035  1.0000  -7.5342   0.0000   0.2984
  41.500   1.4031   0.36332   0.36174  -0.2606  0.0033  1.0000  -7.6845   0.0000   0.2985
  42.000   1.4046   0.36621   0.36469  -0.2661  0.0032  1.0000  -7.8084   0.0000   0.2990
  44.000   1.4061   0.37581   0.37442  -0.2885  0.0026  1.0000  -8.2471   0.0000   0.3011
  44.500   1.4067   0.37760   0.37623  -0.2939  0.0025  1.0000  -8.3722   0.0000   0.3012
  45.000   1.4089   0.37893   0.37756  -0.2990  0.0023  1.0000  -8.5346   0.0000   0.3007
  45.500   1.4057   0.38150   0.38019  -0.3049  0.0022  1.0000  -8.5970   0.0000   0.3017


