xflr5 v6.33

 Calculated polar for: Bell A821201 v4

 1 1 Reynolds number fixed          Mach number fixed         

 xtrf =   1.000 (top)        1.000 (bottom)
 Mach =   0.000     Re =     4.400 e 6     Ncrit =   9.000

  alpha     CL        CD       CDp       Cm    Top Xtr Bot Xtr   Cpmin    Chinge    XCp    
 ------- -------- --------- --------- -------- ------- ------- -------- --------- ---------
 -27.000  -0.7528   0.20084   0.19936  -0.0248  0.9941  0.0092  -8.2510   0.0000   0.1457
 -26.500  -0.7665   0.18890   0.18731  -0.0339  0.9936  0.0093  -8.6144   0.0000   0.1363
 -26.000  -0.7805   0.17700   0.17530  -0.0432  0.9927  0.0094  -8.9262   0.0000   0.1272
 -25.500  -0.8074   0.16608   0.16426  -0.0487  0.9908  0.0095  -9.2460   0.0000   0.1249
 -25.000  -0.8324   0.15595   0.15403  -0.0536  0.9902  0.0096  -9.4921   0.0000   0.1233
 -24.500  -0.8622   0.14421   0.14215  -0.0602  0.9894  0.0096  -9.7807   0.0000   0.1203
 -24.000  -0.8934   0.13201   0.12980  -0.0674  0.9883  0.0097  -10.0503   0.0000   0.1172
 -23.500  -0.9253   0.11993   0.11756  -0.0744  0.9866  0.0097  -10.2860   0.0000   0.1146
 -23.000  -0.9529   0.10861   0.10609  -0.0808  0.9840  0.0097  -10.4511   0.0000   0.1124
 -22.500  -0.9732   0.09848   0.09580  -0.0867  0.9786  0.0098  -10.5284   0.0000   0.1101
 -22.000  -0.9781   0.08862   0.08511  -0.0949  0.7936  0.0098  -10.5017   0.0000   0.1037
 -21.500  -0.9922   0.08055   0.07686  -0.0986  0.7760  0.0098  -10.4807   0.0000   0.1031
 -21.000  -0.9992   0.07360   0.06974  -0.1016  0.7583  0.0099  -10.3947   0.0000   0.1025
 -20.500  -0.9995   0.06760   0.06342  -0.1042  0.6850  0.0099  -10.2542   0.0000   0.1014
 -20.000  -0.9966   0.06216   0.05774  -0.1064  0.6410  0.0099  -10.0848   0.0000   0.1004
 -19.500  -0.9908   0.05727   0.05271  -0.1078  0.6240  0.0100  -9.8901   0.0000   0.0996
 -19.000  -0.9814   0.05296   0.04829  -0.1089  0.6097  0.0100  -9.6689   0.0000   0.0988
 -18.500  -0.9693   0.04904   0.04426  -0.1096  0.6021  0.0100  -9.4295   0.0000   0.0978
 -18.000  -0.9552   0.04542   0.04053  -0.1101  0.5918  0.0101  -9.1777   0.0000   0.0968
 -17.500  -0.9380   0.04226   0.03730  -0.1102  0.5870  0.0101  -8.9075   0.0000   0.0955
 -17.000  -0.9178   0.03943   0.03441  -0.1101  0.5841  0.0102  -8.6218   0.0000   0.0939
 -16.500  -0.8982   0.03661   0.03151  -0.1100  0.5806  0.0102  -8.3417   0.0000   0.0924
 -16.000  -0.8727   0.03436   0.02919  -0.1097  0.5760  0.0103  -8.0328   0.0000   0.0899
 -15.500  -0.8493   0.03194   0.02671  -0.1094  0.5703  0.0103  -7.7387   0.0000   0.0876
 -15.000  -0.8211   0.03001   0.02472  -0.1089  0.5658  0.0103  -7.4234   0.0000   0.0844
 -14.500  -0.7945   0.02796   0.02263  -0.1083  0.5649  0.0104  -7.1205   0.0000   0.0814
 -14.000  -0.7651   0.02622   0.02086  -0.1076  0.5644  0.0104  -6.8077   0.0000   0.0776
 -13.500  -0.7365   0.02447   0.01908  -0.1068  0.5637  0.0105  -6.5034   0.0000   0.0738
 -13.000  -0.7056   0.02294   0.01752  -0.1060  0.5628  0.0105  -6.1939   0.0000   0.0692
 -12.500  -0.6747   0.02137   0.01593  -0.1051  0.5617  0.0105  -5.8897   0.0000   0.0640
 -12.000  -0.6406   0.02001   0.01455  -0.1044  0.5603  0.0106  -5.5773   0.0000   0.0572
 -11.500  -0.6057   0.01863   0.01314  -0.1038  0.5587  0.0106  -5.2691   0.0000   0.0491
 -11.000  -0.5680   0.01734   0.01182  -0.1035  0.5568  0.0107  -4.9569   0.0000   0.0383
 -10.500  -0.5263   0.01614   0.01060  -0.1037  0.5544  0.0107  -4.6376   0.0000   0.0233
 -10.000  -0.4765   0.01501   0.00944  -0.1053  0.5512  0.0108  -4.2999   0.0000  -0.0014
  -9.500  -0.4203   0.01397   0.00836  -0.1080  0.5481  0.0108  -3.9514   0.0000  -0.0389
  -9.000  -0.3774   0.01292   0.00729  -0.1080  0.5455  0.0108  -3.6533   0.0000  -0.0692
  -8.500  -0.3410   0.01188   0.00624  -0.1069  0.5431  0.0109  -3.3820   0.0000  -0.0971
  -8.000  -0.3160   0.01104   0.00539  -0.1028  0.5425  0.0109  -3.1483   0.0000  -0.1088
  -7.500  -0.2930   0.01046   0.00479  -0.0971  0.5422  0.0113  -2.9591   0.0000  -0.1148
  -7.000  -0.2751   0.01009   0.00440  -0.0898  0.5417  0.0117  -2.7854   0.0000  -0.1093
  -6.500  -0.2387   0.00972   0.00404  -0.0862  0.5407  0.0126  -2.5658   0.0000  -0.1455
  -6.000  -0.1977   0.00939   0.00373  -0.0834  0.5386  0.0134  -2.3342   0.0000  -0.2094
  -5.500  -0.1546   0.00908   0.00344  -0.0809  0.5362  0.0155  -2.1073   0.0000  -0.3163
  -5.000  -0.1133   0.00872   0.00313  -0.0781  0.5336  0.0259  -1.8865   0.0000  -0.4907
  -4.500  -0.0737   0.00830   0.00280  -0.0749  0.5293  0.0508  -1.6739   0.0000  -0.8361
  -4.000  -0.0329   0.00792   0.00254  -0.0719  0.5244  0.0820  -1.4638   0.0000  -2.0718
  -3.500   0.0057   0.00747   0.00227  -0.0685  0.5213  0.1316  -1.2653   0.0000  12.9344
  -3.000   0.0406   0.00685   0.00194  -0.0644  0.5208  0.2116  -1.0814   0.0000   1.9093
  -2.500   0.0701   0.00614   0.00160  -0.0591  0.5199  0.3182  -0.9139   0.0000   1.1251
  -2.000   0.0940   0.00521   0.00121  -0.0526  0.5183  0.4765  -0.8740   0.0000   0.8273
  -1.500   0.1490   0.00506   0.00119  -0.0524  0.5142  0.5222  -0.9251   0.0000   0.6070
  -1.000   0.2054   0.00510   0.00122  -0.0523  0.5064  0.5374  -0.9773   0.0000   0.5049
  -0.500   0.2623   0.00517   0.00125  -0.0524  0.5002  0.5396  -1.0301   0.0000   0.4467
   0.000   0.3199   0.00518   0.00129  -0.0526  0.4947  0.5503  -1.0864   0.0000   0.4094
   0.500   0.3769   0.00529   0.00133  -0.0528  0.4817  0.5526  -1.1431   0.0000   0.3835
   1.000   0.4333   0.00545   0.00141  -0.0530  0.4632  0.5543  -1.2091   0.0000   0.3643
   1.500   0.4878   0.00572   0.00154  -0.0528  0.4336  0.5560  -1.2751   0.0000   0.3493
   2.000   0.5408   0.00606   0.00174  -0.0524  0.4020  0.5578  -1.3404   0.0000   0.3370
   2.500   0.5951   0.00635   0.00193  -0.0522  0.3794  0.5591  -1.4109   0.0000   0.3271
   3.000   0.6516   0.00663   0.00211  -0.0526  0.3607  0.5597  -1.4840   0.0000   0.3193
   3.500   0.7094   0.00691   0.00231  -0.0533  0.3432  0.5601  -1.5590   0.0000   0.3131
   4.000   0.7691   0.00720   0.00253  -0.0545  0.3286  0.5604  -1.6361   0.0000   0.3081
   4.500   0.8317   0.00743   0.00271  -0.0563  0.3184  0.5607  -1.7165   0.0000   0.3043
   5.000   0.8948   0.00773   0.00296  -0.0584  0.3049  0.5609  -1.8051   0.0000   0.3011
   5.500   0.9781   0.00808   0.00323  -0.0649  0.2896  0.5633  -1.9193   0.0000   0.3017
   6.000   1.0434   0.00835   0.00346  -0.0675  0.2796  0.5655  -2.0189   0.0000   0.2993
   6.500   1.1006   0.00868   0.00374  -0.0685  0.2679  0.5677  -2.1120   0.0000   0.2961
   7.000   1.1554   0.00895   0.00401  -0.0689  0.2608  0.5700  -2.2039   0.0000   0.2927
   7.500   1.2053   0.00934   0.00435  -0.0684  0.2493  0.5721  -2.2917   0.0000   0.2891
   8.000   1.2553   0.00969   0.00469  -0.0680  0.2413  0.5740  -2.3805   0.0000   0.2857
   8.500   1.3027   0.01010   0.00507  -0.0671  0.2314  0.5757  -2.4799   0.0000   0.2822
   9.000   1.3469   0.01057   0.00552  -0.0658  0.2236  0.5774  -2.5833   0.0000   0.2787
   9.500   1.3905   0.01106   0.00599  -0.0645  0.2146  0.5788  -2.6870   0.0000   0.2753
  10.000   1.4301   0.01166   0.00657  -0.0625  0.2075  0.5801  -2.7868   0.0000   0.2718
  10.500   1.4680   0.01234   0.00724  -0.0605  0.1990  0.5812  -2.8851   0.0000   0.2684
  11.000   1.5050   0.01309   0.00799  -0.0586  0.1935  0.5821  -2.9838   0.0000   0.2651
  11.500   1.5354   0.01415   0.00903  -0.0559  0.1850  0.5826  -3.0782   0.0000   0.2616
  12.000   1.5711   0.01509   0.01001  -0.0543  0.1816  0.5830  -3.1817   0.0000   0.2588
  12.500   1.5957   0.01675   0.01167  -0.0519  0.1739  0.5862  -3.2754   0.0000   0.2556
  13.000   1.6229   0.01859   0.01355  -0.0505  0.1674  0.5907  -3.3837   0.0000   0.2531
  13.500   1.6386   0.02136   0.01633  -0.0486  0.1578  0.5948  -3.4748   0.0000   0.2504
  14.000   1.6583   0.02394   0.01895  -0.0472  0.1525  0.5982  -3.5728   0.0000   0.2481
  14.500   1.6719   0.02703   0.02207  -0.0456  0.1473  0.6009  -3.6646   0.0000   0.2457
  15.000   1.6875   0.03013   0.02523  -0.0445  0.1425  0.6031  -3.7652   0.0000   0.2435
  15.500   1.7048   0.03309   0.02824  -0.0436  0.1396  0.6048  -3.8723   0.0000   0.2414
  16.000   1.7081   0.03718   0.03234  -0.0420  0.1324  0.6057  -3.9543   0.0000   0.2392
  16.500   1.7196   0.04073   0.03595  -0.0412  0.1279  0.6101  -4.0525   0.0000   0.2372
  17.000   1.7206   0.04525   0.04050  -0.0401  0.1207  0.6171  -4.1286   0.0000   0.2352
  17.500   1.7347   0.04864   0.04393  -0.0396  0.1157  0.6227  -4.2319   0.0000   0.2334
  18.000   1.7342   0.05344   0.04876  -0.0388  0.1087  0.6269  -4.3042   0.0000   0.2315
  19.000   1.7491   0.06186   0.05728  -0.0382  0.1004  0.6423  -4.4809   0.0000   0.2283
  19.500   1.7537   0.06653   0.06204  -0.0382  0.0967  0.6506  -4.5623   0.0000   0.2269
  20.000   1.7513   0.07198   0.06754  -0.0383  0.0908  0.6630  -4.6297   0.0000   0.2255
  20.500   1.7579   0.07653   0.07216  -0.0387  0.0869  0.6758  -4.7194   0.0000   0.2242
  21.000   1.7486   0.08298   0.07869  -0.0393  0.0815  0.6935  -4.7695   0.0000   0.2232
  21.500   1.7456   0.08890   0.08474  -0.0403  0.0781  0.7172  -4.8602   0.0000   0.2223
  22.000   1.7327   0.09606   0.09203  -0.0417  0.0734  0.7507  -4.9747   0.0000   0.2217
  22.500   1.7281   0.10268   0.09894  -0.0438  0.0701  0.8478  -5.1173   0.0000   0.2214
  23.000   1.6923   0.10905   0.10566  -0.0401  0.0668  0.9971  -5.1553   0.0000   0.2182
  23.500   1.7062   0.11842   0.11512  -0.0496  0.0627  1.0000  -5.3497   0.0000   0.2219
  24.000   1.6856   0.12694   0.12371  -0.0524  0.0593  1.0000  -5.4262   0.0000   0.2223
  24.500   1.6839   0.13291   0.12976  -0.0549  0.0572  1.0000  -5.5764   0.0000   0.2222
  25.000   1.6677   0.14089   0.13782  -0.0583  0.0545  1.0000  -5.6641   0.0000   0.2228
  25.500   1.6524   0.14887   0.14588  -0.0621  0.0517  1.0000  -5.7511   0.0000   0.2237
  26.000   1.6377   0.15684   0.15393  -0.0662  0.0490  1.0000  -5.8364   0.0000   0.2249
  26.500   1.6214   0.16509   0.16226  -0.0709  0.0461  1.0000  -5.9086   0.0000   0.2264
  27.000   1.6072   0.17301   0.17025  -0.0757  0.0435  1.0000  -5.9864   0.0000   0.2280
  27.500   1.6003   0.17985   0.17713  -0.0802  0.0398  1.0000  -6.0965   0.0000   0.2292
  28.000   1.5819   0.18858   0.18591  -0.0861  0.0358  1.0000  -6.1485   0.0000   0.2316
  28.500   1.5601   0.19799   0.19535  -0.0926  0.0307  1.0000  -6.1738   0.0000   0.2346
  29.000   1.5345   0.20816   0.20556  -0.0999  0.0255  1.0000  -6.1671   0.0000   0.2384
  29.500   1.5148   0.21746   0.21490  -0.1069  0.0215  1.0000  -6.1833   0.0000   0.2420
  30.000   1.4980   0.22621   0.22371  -0.1139  0.0181  1.0000  -6.2086   0.0000   0.2455
  30.500   1.4797   0.23537   0.23291  -0.1213  0.0141  1.0000  -6.2138   0.0000   0.2495
  31.500   1.4413   0.25456   0.25218  -0.1371  0.0075  1.0000  -6.1741   0.0000   0.2587
  32.000   1.4410   0.26041   0.25807  -0.1428  0.0068  1.0000  -6.2807   0.0000   0.2606
  32.500   1.4343   0.26757   0.26529  -0.1494  0.0060  1.0000  -6.3320   0.0000   0.2636
  33.000   1.4302   0.27411   0.27191  -0.1557  0.0058  1.0000  -6.4002   0.0000   0.2661
  33.500   1.4321   0.27926   0.27711  -0.1612  0.0055  1.0000  -6.5166   0.0000   0.2676
  34.000   1.4271   0.28589   0.28380  -0.1677  0.0052  1.0000  -6.5698   0.0000   0.2703
  34.500   1.4210   0.29275   0.29073  -0.1745  0.0049  1.0000  -6.6042   0.0000   0.2734
  35.000   1.4219   0.29793   0.29595  -0.1802  0.0046  1.0000  -6.7043   0.0000   0.2749
  35.500   1.4200   0.30364   0.30174  -0.1864  0.0045  0.9999  -6.7831   0.0000   0.2771
  36.000   1.4231   0.30806   0.30620  -0.1918  0.0043  0.9999  -6.9127   0.0000   0.2781
  36.500   1.4204   0.31379   0.31199  -0.1981  0.0041  0.9999  -6.9777   0.0000   0.2804
  37.000   1.4178   0.31944   0.31769  -0.2044  0.0039  0.9999  -7.0388   0.0000   0.2826
  37.500   1.4177   0.32433   0.32262  -0.2104  0.0037  0.9999  -7.1307   0.0000   0.2841
  38.000   1.4119   0.33066   0.32901  -0.2172  0.0034  0.9999  -7.1542   0.0000   0.2870
  38.500   1.4152   0.33443   0.33282  -0.2226  0.0033  0.9999  -7.3060   0.0000   0.2877
  39.000   1.4140   0.33925   0.33769  -0.2286  0.0032  0.9999  -7.3968   0.0000   0.2893
  39.500   1.4168   0.34289   0.34136  -0.2340  0.0031  0.9998  -7.5443   0.0000   0.2899
  40.000   1.4145   0.34776   0.34628  -0.2402  0.0029  0.9998  -7.6182   0.0000   0.2916
  40.500   1.4160   0.35147   0.35002  -0.2457  0.0028  0.9998  -7.7485   0.0000   0.2924
  41.000   1.4125   0.35646   0.35505  -0.2521  0.0026  0.9998  -7.7987   0.0000   0.2943
  41.500   1.4122   0.36041   0.35902  -0.2578  0.0024  0.9998  -7.8994   0.0000   0.2953
  42.000   1.4100   0.36450   0.36315  -0.2639  0.0023  0.9998  -7.9668   0.0000   0.2967
  42.500   1.4121   0.36687   0.36555  -0.2692  0.0022  0.9998  -8.1142   0.0000   0.2968
  43.000   1.4135   0.36909   0.36781  -0.2746  0.0021  0.9997  -8.2487   0.0000   0.2971
  43.500   1.4120   0.37174   0.37050  -0.2805  0.0021  0.9997  -8.3309   0.0000   0.2981
  44.000   1.4130   0.37351   0.37229  -0.2859  0.0020  0.9997  -8.4658   0.0000   0.2982
  44.500   1.4103   0.37604   0.37486  -0.2919  0.0018  0.9997  -8.5268   0.0000   0.2992
  45.000   1.4093   0.37806   0.37689  -0.2975  0.0017  0.9997  -8.6262   0.0000   0.2997
  45.500   1.4059   0.38058   0.37943  -0.3035  0.0015  0.9997  -8.6777   0.0000   0.3007


