xflr5 v6.33

 Calculated polar for: Bell A821201 v4

 1 1 Reynolds number fixed          Mach number fixed         

 xtrf =   1.000 (top)        1.000 (bottom)
 Mach =   0.000     Re =     1.600 e 6     Ncrit =   9.000

  alpha     CL        CD       CDp       Cm    Top Xtr Bot Xtr   Cpmin    Chinge    XCp    
 ------- -------- --------- --------- -------- ------- ------- -------- --------- ---------
 -22.500  -0.7371   0.15135   0.14906  -0.0445  0.9974  0.0124  -7.4845   0.0000   0.1323
 -22.000  -0.7776   0.13415   0.13158  -0.0561  0.9965  0.0124  -7.9715   0.0000   0.1232
 -21.500  -0.7970   0.12078   0.11800  -0.0659  0.9951  0.0125  -8.1867   0.0000   0.1145
 -21.000  -0.8076   0.10917   0.10620  -0.0746  0.9932  0.0126  -8.2854   0.0000   0.1064
 -20.500  -0.8225   0.09948   0.09634  -0.0796  0.9901  0.0126  -8.3439   0.0000   0.1041
 -20.000  -0.8314   0.09056   0.08725  -0.0844  0.9869  0.0127  -8.3446   0.0000   0.1010
 -19.500  -0.8392   0.08281   0.07936  -0.0876  0.9764  0.0127  -8.3090   0.0000   0.0998
 -19.000  -0.7862   0.07311   0.06880  -0.1045  0.7962  0.0129  -8.0243   0.0000   0.0706
 -18.500  -0.7834   0.06733   0.06278  -0.1069  0.7640  0.0130  -7.9033   0.0000   0.0685
 -18.000  -0.7761   0.06225   0.05729  -0.1090  0.6824  0.0130  -7.7499   0.0000   0.0658
 -17.500  -0.7655   0.05762   0.05242  -0.1107  0.6475  0.0131  -7.5725   0.0000   0.0627
 -17.000  -0.7526   0.05348   0.04811  -0.1119  0.6315  0.0132  -7.3779   0.0000   0.0597
 -16.500  -0.7378   0.04970   0.04419  -0.1127  0.6222  0.0133  -7.1702   0.0000   0.0566
 -16.000  -0.7211   0.04619   0.04055  -0.1134  0.6119  0.0133  -6.9513   0.0000   0.0531
 -15.500  -0.7023   0.04309   0.03736  -0.1135  0.6086  0.0134  -6.7206   0.0000   0.0494
 -15.000  -0.6812   0.04023   0.03442  -0.1136  0.6047  0.0135  -6.4794   0.0000   0.0450
 -14.500  -0.6590   0.03754   0.03164  -0.1136  0.6004  0.0135  -6.2343   0.0000   0.0401
 -14.000  -0.6335   0.03517   0.02918  -0.1135  0.5954  0.0136  -5.9760   0.0000   0.0337
 -13.500  -0.6069   0.03289   0.02681  -0.1135  0.5904  0.0136  -5.7164   0.0000   0.0263
 -13.000  -0.5784   0.03083   0.02469  -0.1133  0.5878  0.0137  -5.4513   0.0000   0.0177
 -12.500  -0.5493   0.02887   0.02269  -0.1130  0.5866  0.0137  -5.1865   0.0000   0.0081
 -12.000  -0.5189   0.02705   0.02082  -0.1127  0.5851  0.0138  -4.9206   0.0000  -0.0033
 -11.500  -0.4923   0.02499   0.01871  -0.1123  0.5834  0.0139  -4.6858   0.0000  -0.0139
 -11.000  -0.4602   0.02313   0.01678  -0.1124  0.5816  0.0141  -4.4340   0.0000  -0.0302
 -10.500  -0.4209   0.02141   0.01501  -0.1136  0.5796  0.0144  -4.1601   0.0000  -0.0566
 -10.000  -0.3839   0.01996   0.01353  -0.1136  0.5775  0.0146  -3.8931   0.0000  -0.0835
  -9.500  -0.3488   0.01862   0.01215  -0.1129  0.5751  0.0150  -3.6337   0.0000  -0.1123
  -9.000  -0.3143   0.01739   0.01089  -0.1119  0.5721  0.0155  -3.3778   0.0000  -0.1457
  -8.500  -0.2811   0.01624   0.00970  -0.1104  0.5693  0.0160  -3.1337   0.0000  -0.1839
  -8.000  -0.2496   0.01513   0.00856  -0.1085  0.5664  0.0165  -2.9158   0.0000  -0.2275
  -7.500  -0.2240   0.01395   0.00736  -0.1055  0.5649  0.0172  -2.7355   0.0000  -0.2648
  -7.000  -0.2127   0.01278   0.00617  -0.0996  0.5643  0.0187  -2.5908   0.0000  -0.2605
  -6.500  -0.1979   0.01219   0.00559  -0.0924  0.5633  0.0210  -2.4339   0.0000  -0.2586
  -6.000  -0.1813   0.01165   0.00511  -0.0853  0.5620  0.0316  -2.2748   0.0000  -0.2619
  -5.500  -0.1569   0.01096   0.00458  -0.0797  0.5604  0.0642  -2.0955   0.0000  -0.3012
  -5.000  -0.1269   0.01030   0.00410  -0.0751  0.5575  0.1041  -1.9013   0.0000  -0.3892
  -4.000  -0.0745   0.00854   0.00301  -0.0642  0.5507  0.2784  -1.5399   0.0000  -0.6730
  -3.500  -0.0532   0.00742   0.00242  -0.0578  0.5475  0.4276  -1.3755   0.0000  -0.9086
  -3.000  -0.0089   0.00713   0.00242  -0.0554  0.5426  0.5226  -1.1684   0.0000  -6.3298
  -2.500   0.0439   0.00713   0.00242  -0.0545  0.5411  0.5390  -0.9532   0.0000   1.5455
  -2.000   0.0960   0.00719   0.00252  -0.0534  0.5392  0.5531  -0.8734   0.0000   0.8231
  -1.500   0.1491   0.00735   0.00265  -0.0524  0.5367  0.5600  -0.9233   0.0000   0.6076
  -1.000   0.2018   0.00734   0.00267  -0.0516  0.5337  0.5689  -0.9733   0.0000   0.5059
  -0.500   0.2530   0.00733   0.00263  -0.0504  0.5301  0.5712  -1.0228   0.0000   0.4463
   0.000   0.3025   0.00735   0.00259  -0.0489  0.5244  0.5731  -1.0737   0.0000   0.4066
   0.500   0.3532   0.00738   0.00261  -0.0477  0.5195  0.5760  -1.1263   0.0000   0.3782
   1.000   0.4046   0.00734   0.00256  -0.0466  0.5142  0.5779  -1.1875   0.0000   0.3571
   1.500   0.4559   0.00733   0.00252  -0.0457  0.5073  0.5790  -1.2512   0.0000   0.3409
   2.000   0.5071   0.00739   0.00253  -0.0447  0.4995  0.5802  -1.3152   0.0000   0.3279
   2.500   0.5598   0.00744   0.00256  -0.0440  0.4891  0.5811  -1.3816   0.0000   0.3176
   3.000   0.6093   0.00758   0.00262  -0.0428  0.4717  0.5819  -1.4492   0.0000   0.3085
   3.500   0.6534   0.00789   0.00278  -0.0406  0.4438  0.5825  -1.5129   0.0000   0.2995
   4.000   0.6973   0.00826   0.00303  -0.0385  0.4158  0.5829  -1.5767   0.0000   0.2918
   4.500   0.7458   0.00862   0.00329  -0.0375  0.3923  0.5847  -1.6445   0.0000   0.2862
   5.000   0.7982   0.00899   0.00358  -0.0375  0.3725  0.5876  -1.7168   0.0000   0.2822
   5.500   0.8519   0.00938   0.00391  -0.0378  0.3552  0.5898  -1.8023   0.0000   0.2788
   6.000   0.9071   0.00979   0.00428  -0.0384  0.3406  0.5916  -1.8902   0.0000   0.2762
   7.000   1.0236   0.01067   0.00510  -0.0414  0.3150  0.5948  -2.0743   0.0000   0.2729
   7.500   1.0836   0.01118   0.00557  -0.0434  0.3022  0.5964  -2.1693   0.0000   0.2719
   8.000   1.1484   0.01180   0.00614  -0.0467  0.2884  0.5980  -2.2698   0.0000   0.2718
   8.500   1.2058   0.01230   0.00666  -0.0484  0.2796  0.5996  -2.3669   0.0000   0.2704
   9.000   1.2514   0.01307   0.00739  -0.0481  0.2675  0.6012  -2.4691   0.0000   0.2679
   9.500   1.2966   0.01375   0.00809  -0.0476  0.2595  0.6028  -2.5722   0.0000   0.2653
  10.000   1.3327   0.01478   0.00911  -0.0461  0.2496  0.6043  -2.6648   0.0000   0.2622
  10.500   1.3713   0.01574   0.01011  -0.0450  0.2431  0.6054  -2.7613   0.0000   0.2595
  11.000   1.3989   0.01741   0.01177  -0.0432  0.2327  0.6069  -2.8432   0.0000   0.2566
  11.500   1.4339   0.01897   0.01340  -0.0429  0.2265  0.6110  -2.9377   0.0000   0.2545
  12.000   1.4549   0.02157   0.01602  -0.0417  0.2168  0.6148  -3.0142   0.0000   0.2521
  12.500   1.4815   0.02380   0.01833  -0.0409  0.2109  0.6182  -3.1015   0.0000   0.2500
  13.000   1.4954   0.02702   0.02157  -0.0396  0.2027  0.6211  -3.1758   0.0000   0.2477
  13.500   1.5156   0.02988   0.02451  -0.0388  0.1974  0.6241  -3.2679   0.0000   0.2457
  14.000   1.5307   0.03309   0.02777  -0.0378  0.1913  0.6267  -3.3536   0.0000   0.2435
  14.500   1.5393   0.03681   0.03153  -0.0366  0.1840  0.6287  -3.4277   0.0000   0.2413
  15.000   1.5581   0.03988   0.03468  -0.0361  0.1794  0.6333  -3.5242   0.0000   0.2396
  15.500   1.5648   0.04398   0.03882  -0.0353  0.1714  0.6398  -3.6018   0.0000   0.2376
  16.000   1.5836   0.04707   0.04200  -0.0350  0.1661  0.6458  -3.7042   0.0000   0.2360
  16.500   1.5899   0.05133   0.04629  -0.0344  0.1590  0.6510  -3.7854   0.0000   0.2342
  17.000   1.6047   0.05489   0.04992  -0.0342  0.1534  0.6595  -3.8849   0.0000   0.2326
  17.500   1.6119   0.05932   0.05442  -0.0341  0.1480  0.6701  -3.9687   0.0000   0.2311
  18.000   1.6173   0.06395   0.05913  -0.0341  0.1422  0.6816  -4.0479   0.0000   0.2297
  18.500   1.6329   0.06767   0.06298  -0.0345  0.1377  0.6987  -4.1491   0.0000   0.2284
  19.000   1.6302   0.07343   0.06883  -0.0349  0.1305  0.7219  -4.2090   0.0000   0.2272
  19.500   1.6444   0.07753   0.07314  -0.0358  0.1262  0.7654  -4.3061   0.0000   0.2263
  20.000   1.6220   0.08229   0.07839  -0.0310  0.1209  0.9948  -4.3305   0.0000   0.2222
  20.500   1.6555   0.08993   0.08611  -0.0403  0.1145  1.0000  -4.4548   0.0000   0.2260
  21.000   1.6428   0.09714   0.09338  -0.0414  0.1089  1.0000  -4.4896   0.0000   0.2253
  21.500   1.6396   0.10334   0.09968  -0.0428  0.1056  1.0000  -4.5461   0.0000   0.2247
  22.000   1.6251   0.11105   0.10746  -0.0447  0.1009  1.0000  -4.5803   0.0000   0.2246
  22.500   1.6149   0.11825   0.11476  -0.0468  0.0966  1.0000  -4.6859   0.0000   0.2246
  23.000   1.6024   0.12587   0.12246  -0.0494  0.0920  1.0000  -4.7854   0.0000   0.2248
  23.500   1.5898   0.13360   0.13027  -0.0523  0.0878  1.0000  -4.8826   0.0000   0.2253
  24.000   1.5849   0.14020   0.13695  -0.0552  0.0839  1.0000  -5.0088   0.0000   0.2257
  24.500   1.5696   0.14842   0.14524  -0.0590  0.0797  1.0000  -5.0884   0.0000   0.2268
  25.000   1.5611   0.15571   0.15262  -0.0628  0.0762  1.0000  -5.1931   0.0000   0.2278
  25.500   1.5452   0.16416   0.16114  -0.0674  0.0721  1.0000  -5.2609   0.0000   0.2295
  26.000   1.5408   0.17083   0.16790  -0.0715  0.0692  1.0000  -5.3774   0.0000   0.2306
  26.500   1.5307   0.17840   0.17550  -0.0763  0.0654  1.0000  -5.4644   0.0000   0.2323
  27.000   1.5277   0.18491   0.18211  -0.0808  0.0629  1.0000  -5.5818   0.0000   0.2335
  27.500   1.5164   0.19279   0.19005  -0.0863  0.0596  1.0000  -5.6539   0.0000   0.2357
  28.000   1.5177   0.19854   0.19586  -0.0907  0.0570  1.0000  -5.7890   0.0000   0.2368
  28.500   1.5095   0.20591   0.20329  -0.0963  0.0538  1.0000  -5.8743   0.0000   0.2390
  29.000   1.5035   0.21290   0.21035  -0.1019  0.0510  1.0000  -5.9710   0.0000   0.2411
  29.500   1.5019   0.21904   0.21653  -0.1071  0.0478  1.0000  -6.0917   0.0000   0.2427
  30.000   1.4954   0.22598   0.22355  -0.1130  0.0449  1.0000  -6.1787   0.0000   0.2450
  30.500   1.4858   0.23353   0.23112  -0.1195  0.0413  1.0000  -6.2413   0.0000   0.2478
  31.000   1.4820   0.23999   0.23763  -0.1253  0.0375  1.0000  -6.3373   0.0000   0.2500
  31.500   1.4696   0.24814   0.24582  -0.1324  0.0330  1.0000  -6.3678   0.0000   0.2535
  32.000   1.4530   0.25720   0.25489  -0.1403  0.0276  1.0000  -6.3573   0.0000   0.2579
  32.500   1.4365   0.26635   0.26407  -0.1482  0.0227  1.0000  -6.3342   0.0000   0.2625
  33.000   1.4193   0.27579   0.27352  -0.1565  0.0180  1.0000  -6.2895   0.0000   0.2676
  33.500   1.4018   0.28549   0.28323  -0.1650  0.0130  1.0000  -6.2240   0.0000   0.2730
  34.000   1.3887   0.29431   0.29206  -0.1730  0.0100  1.0000  -6.1807   0.0000   0.2777
  34.500   1.3814   0.30180   0.29959  -0.1801  0.0087  1.0000  -6.1796   0.0000   0.2814
  35.000   1.3763   0.30874   0.30658  -0.1870  0.0079  1.0000  -6.2002   0.0000   0.2847
  35.500   1.3768   0.31416   0.31204  -0.1930  0.0073  1.0000  -6.2788   0.0000   0.2866
  36.000   1.3768   0.31961   0.31755  -0.1991  0.0069  1.0000  -6.3485   0.0000   0.2886
  36.500   1.3784   0.32457   0.32254  -0.2050  0.0065  1.0000  -6.4356   0.0000   0.2902
  37.000   1.3783   0.32981   0.32780  -0.2111  0.0061  1.0000  -6.5031   0.0000   0.2921
  37.500   1.3823   0.33378   0.33181  -0.2165  0.0058  1.0000  -6.6318   0.0000   0.2929
  38.000   1.3854   0.33789   0.33598  -0.2220  0.0056  1.0000  -6.7499   0.0000   0.2939
  38.500   1.3879   0.34196   0.34009  -0.2276  0.0053  1.0000  -6.8720   0.0000   0.2948
  39.000   1.3912   0.34570   0.34386  -0.2331  0.0051  1.0000  -7.0100   0.0000   0.2955
  39.500   1.3945   0.34926   0.34742  -0.2385  0.0048  1.0000  -7.1505   0.0000   0.2961
  40.000   1.3984   0.35249   0.35067  -0.2438  0.0045  1.0000  -7.3008   0.0000   0.2964
  40.500   1.4003   0.35612   0.35436  -0.2494  0.0044  1.0000  -7.4244   0.0000   0.2971
  41.000   1.4025   0.35953   0.35783  -0.2548  0.0042  1.0000  -7.5547   0.0000   0.2976
  41.500   1.4030   0.36309   0.36142  -0.2606  0.0040  1.0000  -7.6578   0.0000   0.2985
  42.000   1.4046   0.36589   0.36425  -0.2661  0.0038  1.0000  -7.7840   0.0000   0.2990
  42.500   1.4067   0.36826   0.36664  -0.2715  0.0036  1.0000  -7.9221   0.0000   0.2992
  43.000   1.4112   0.36971   0.36808  -0.2765  0.0034  1.0000  -8.1080   0.0000   0.2986
  43.500   1.4098   0.37249   0.37093  -0.2824  0.0033  1.0000  -8.1806   0.0000   0.2996
  44.000   1.4088   0.37507   0.37357  -0.2882  0.0031  1.0000  -8.2632   0.0000   0.3004
  44.500   1.4062   0.37785   0.37642  -0.2942  0.0030  1.0000  -8.3131   0.0000   0.3015
  45.000   1.4050   0.38014   0.37875  -0.2999  0.0028  1.0000  -8.4077   0.0000   0.3020
  45.500   1.4029   0.38277   0.38143  -0.3057  0.0026  1.0000  -8.4883   0.0000   0.3028


