xflr5 v6.33

 Calculated polar for: Bell A821201 v4

 1 1 Reynolds number fixed          Mach number fixed         

 xtrf =   1.000 (top)        1.000 (bottom)
 Mach =   0.000     Re =     2.500 e 6     Ncrit =   9.000

  alpha     CL        CD       CDp       Cm    Top Xtr Bot Xtr   Cpmin    Chinge    XCp    
 ------- -------- --------- --------- -------- ------- ------- -------- --------- ---------
 -24.000  -0.7182   0.16752   0.16559  -0.0432  0.9944  0.0107  -7.7210   0.0000   0.1267
 -23.500  -0.7451   0.15288   0.15076  -0.0533  0.9934  0.0107  -8.1305   0.0000   0.1177
 -23.000  -0.7659   0.14029   0.13801  -0.0617  0.9916  0.0108  -8.3862   0.0000   0.1108
 -22.500  -0.7939   0.12954   0.12711  -0.0662  0.9899  0.0108  -8.5973   0.0000   0.1106
 -22.000  -0.8105   0.11944   0.11687  -0.0718  0.9882  0.0108  -8.7033   0.0000   0.1074
 -21.500  -0.8261   0.10919   0.10648  -0.0777  0.9853  0.0108  -8.7852   0.0000   0.1037
 -21.000  -0.8388   0.10032   0.09747  -0.0821  0.9766  0.0109  -8.8077   0.0000   0.1018
 -20.500  -0.8125   0.08971   0.08600  -0.0958  0.7952  0.0109  -8.6519   0.0000   0.0820
 -20.000  -0.8161   0.08256   0.07865  -0.0994  0.7720  0.0109  -8.5783   0.0000   0.0798
 -19.500  -0.8253   0.07506   0.07090  -0.1027  0.7420  0.0109  -8.5466   0.0000   0.0789
 -19.000  -0.8346   0.06785   0.06325  -0.1059  0.6574  0.0110  -8.5218   0.0000   0.0784
 -18.500  -0.8387   0.06163   0.05681  -0.1081  0.6349  0.0111  -8.4371   0.0000   0.0781
 -18.000  -0.8384   0.05614   0.05117  -0.1096  0.6238  0.0112  -8.3114   0.0000   0.0777
 -17.500  -0.8329   0.05142   0.04629  -0.1106  0.6111  0.0113  -8.1466   0.0000   0.0769
 -17.000  -0.8232   0.04733   0.04209  -0.1112  0.6060  0.0113  -7.9510   0.0000   0.0759
 -16.500  -0.8099   0.04372   0.03837  -0.1115  0.6000  0.0114  -7.7328   0.0000   0.0744
 -16.000  -0.7943   0.04037   0.03491  -0.1116  0.5926  0.0115  -7.5010   0.0000   0.0725
 -15.500  -0.7749   0.03749   0.03195  -0.1115  0.5879  0.0116  -7.2485   0.0000   0.0700
 -15.000  -0.7539   0.03485   0.02926  -0.1112  0.5863  0.0116  -6.9877   0.0000   0.0673
 -14.500  -0.7311   0.03241   0.02675  -0.1108  0.5841  0.0117  -6.7199   0.0000   0.0639
 -14.000  -0.7051   0.03028   0.02457  -0.1103  0.5817  0.0118  -6.4395   0.0000   0.0597
 -13.500  -0.6780   0.02824   0.02247  -0.1098  0.5792  0.0119  -6.1578   0.0000   0.0547
 -13.000  -0.6487   0.02643   0.02061  -0.1092  0.5764  0.0120  -5.8700   0.0000   0.0487
 -12.500  -0.6187   0.02473   0.01885  -0.1087  0.5730  0.0121  -5.5833   0.0000   0.0418
 -12.000  -0.5860   0.02317   0.01725  -0.1082  0.5694  0.0122  -5.2912   0.0000   0.0329
 -11.500  -0.5509   0.02166   0.01569  -0.1081  0.5660  0.0123  -4.9962   0.0000   0.0214
 -11.000  -0.5132   0.02028   0.01429  -0.1081  0.5648  0.0124  -4.6972   0.0000   0.0068
 -10.500  -0.4720   0.01890   0.01288  -0.1088  0.5643  0.0125  -4.3936   0.0000  -0.0134
 -10.000  -0.4246   0.01764   0.01160  -0.1102  0.5635  0.0127  -4.0778   0.0000  -0.0437
  -9.500  -0.3850   0.01642   0.01037  -0.1101  0.5624  0.0129  -3.7932   0.0000  -0.0708
  -9.000  -0.3478   0.01525   0.00918  -0.1093  0.5612  0.0131  -3.5224   0.0000  -0.1001
  -8.500  -0.3125   0.01412   0.00804  -0.1080  0.5599  0.0133  -3.2621   0.0000  -0.1325
  -8.000  -0.2807   0.01303   0.00693  -0.1060  0.5586  0.0136  -3.0239   0.0000  -0.1653
  -7.500  -0.2598   0.01201   0.00588  -0.1016  0.5572  0.0138  -2.8381   0.0000  -0.1788
  -7.000  -0.2409   0.01137   0.00521  -0.0954  0.5556  0.0146  -2.6752   0.0000  -0.1831
  -6.500  -0.2244   0.01098   0.00481  -0.0880  0.5535  0.0158  -2.5080   0.0000  -0.1791
  -6.000  -0.1902   0.01061   0.00444  -0.0840  0.5505  0.0179  -2.3026   0.0000  -0.2311
  -5.500  -0.1566   0.01019   0.00407  -0.0799  0.5451  0.0300  -2.1015   0.0000  -0.3031
  -5.000  -0.1233   0.00963   0.00365  -0.0758  0.5421  0.0606  -1.9007   0.0000  -0.4131
  -4.500  -0.0862   0.00909   0.00327  -0.0723  0.5412  0.0976  -1.6934   0.0000  -0.6487
  -4.000  -0.0520   0.00843   0.00286  -0.0682  0.5397  0.1583  -1.4978   0.0000  -1.1462
  -3.500  -0.0214   0.00765   0.00242  -0.0633  0.5373  0.2494  -1.3151   0.0000  -2.8915
  -3.000   0.0037   0.00669   0.00194  -0.0574  0.5348  0.3819  -1.1489   0.0000  16.5138
  -2.500   0.0351   0.00596   0.00167  -0.0524  0.5323  0.5164  -0.9750   0.0000   1.8139
  -2.000   0.0873   0.00596   0.00169  -0.0514  0.5291  0.5341  -0.8695   0.0000   0.8583
  -1.500   0.1406   0.00604   0.00173  -0.0507  0.5245  0.5451  -0.9194   0.0000   0.6166
  -1.000   0.1942   0.00610   0.00180  -0.0500  0.5209  0.5531  -0.9697   0.0000   0.5078
  -0.500   0.2476   0.00617   0.00187  -0.0492  0.5185  0.5590  -1.0205   0.0000   0.4457
   0.000   0.3027   0.00618   0.00185  -0.0489  0.5132  0.5600  -1.0750   0.0000   0.4063
   0.500   0.3563   0.00624   0.00185  -0.0483  0.5056  0.5606  -1.1295   0.0000   0.3787
   1.000   0.4123   0.00626   0.00185  -0.0483  0.4994  0.5635  -1.1939   0.0000   0.3590
   1.500   0.4691   0.00627   0.00185  -0.0485  0.4908  0.5675  -1.2615   0.0000   0.3443
   2.000   0.5236   0.00639   0.00190  -0.0482  0.4757  0.5696  -1.3280   0.0000   0.3321
   2.500   0.5753   0.00663   0.00203  -0.0476  0.4485  0.5712  -1.3949   0.0000   0.3218
   3.000   0.6256   0.00699   0.00223  -0.0467  0.4174  0.5726  -1.4630   0.0000   0.3130
   3.500   0.6767   0.00735   0.00248  -0.0460  0.3920  0.5738  -1.5321   0.0000   0.3056
   4.000   0.7295   0.00768   0.00272  -0.0458  0.3719  0.5750  -1.6033   0.0000   0.2997
   4.500   0.7838   0.00802   0.00299  -0.0460  0.3544  0.5763  -1.6763   0.0000   0.2948
   5.000   0.8403   0.00835   0.00326  -0.0466  0.3397  0.5776  -1.7552   0.0000   0.2910
   5.500   0.8985   0.00873   0.00357  -0.0477  0.3247  0.5788  -1.8457   0.0000   0.2880
   6.000   0.9601   0.00906   0.00387  -0.0496  0.3137  0.5798  -1.9405   0.0000   0.2859
   6.500   1.0231   0.00943   0.00419  -0.0519  0.3015  0.5806  -2.0375   0.0000   0.2843
   7.000   1.0932   0.00990   0.00460  -0.0559  0.2862  0.5814  -2.1423   0.0000   0.2840
   7.500   1.1528   0.01026   0.00494  -0.0576  0.2781  0.5821  -2.2385   0.0000   0.2821
   8.000   1.2041   0.01074   0.00539  -0.0577  0.2668  0.5826  -2.3274   0.0000   0.2792
   8.500   1.2527   0.01124   0.00585  -0.0573  0.2573  0.5830  -2.4217   0.0000   0.2763
   9.000   1.3014   0.01174   0.00635  -0.0571  0.2484  0.5857  -2.5290   0.0000   0.2736
   9.500   1.3465   0.01231   0.00692  -0.0564  0.2402  0.5890  -2.6333   0.0000   0.2707
  10.000   1.3867   0.01302   0.00764  -0.0550  0.2311  0.5925  -2.7324   0.0000   0.2675
  10.500   1.4237   0.01387   0.00850  -0.0532  0.2233  0.5954  -2.8284   0.0000   0.2644
  11.000   1.4567   0.01495   0.00958  -0.0512  0.2146  0.5977  -2.9197   0.0000   0.2611
  11.500   1.4865   0.01629   0.01094  -0.0492  0.2076  0.5998  -3.0111   0.0000   0.2581
  12.000   1.5120   0.01811   0.01278  -0.0473  0.1992  0.6017  -3.0967   0.0000   0.2552
  12.500   1.5408   0.02002   0.01474  -0.0463  0.1946  0.6034  -3.1912   0.0000   0.2529
  13.000   1.5580   0.02276   0.01750  -0.0447  0.1868  0.6047  -3.2775   0.0000   0.2503
  13.500   1.5820   0.02510   0.01989  -0.0436  0.1823  0.6057  -3.3804   0.0000   0.2480
  14.000   1.5980   0.02816   0.02300  -0.0425  0.1760  0.6092  -3.4700   0.0000   0.2458
  14.500   1.6098   0.03166   0.02655  -0.0414  0.1686  0.6147  -3.5537   0.0000   0.2437
  15.000   1.6213   0.03514   0.03009  -0.0403  0.1624  0.6194  -3.6415   0.0000   0.2416
  15.500   1.6281   0.03908   0.03407  -0.0391  0.1549  0.6232  -3.7231   0.0000   0.2395
  16.000   1.6408   0.04253   0.03756  -0.0383  0.1504  0.6266  -3.8188   0.0000   0.2375
  16.500   1.6457   0.04674   0.04179  -0.0373  0.1438  0.6291  -3.9007   0.0000   0.2355
  17.000   1.6604   0.05026   0.04542  -0.0371  0.1408  0.6374  -4.0025   0.0000   0.2339
  17.500   1.6723   0.05399   0.04919  -0.0367  0.1348  0.6457  -4.0988   0.0000   0.2322
  18.000   1.6783   0.05842   0.05369  -0.0364  0.1291  0.6523  -4.1822   0.0000   0.2306
  18.500   1.6901   0.06228   0.05762  -0.0364  0.1234  0.6660  -4.2781   0.0000   0.2291
  19.000   1.6918   0.06730   0.06270  -0.0364  0.1174  0.6766  -4.3510   0.0000   0.2277
  19.500   1.6919   0.07266   0.06815  -0.0367  0.1118  0.6950  -4.4190   0.0000   0.2264
  20.000   1.6988   0.07731   0.07291  -0.0372  0.1070  0.7197  -4.5017   0.0000   0.2253
  20.500   1.6981   0.08304   0.07881  -0.0382  0.1031  0.7593  -4.5701   0.0000   0.2244
  21.000   1.7022   0.08973   0.08604  -0.0417  0.0976  0.9752  -4.6434   0.0000   0.2249
  21.500   1.6982   0.09641   0.09279  -0.0429  0.0932  1.0000  -4.7014   0.0000   0.2241
  22.000   1.6849   0.10374   0.10019  -0.0443  0.0884  1.0000  -4.7931   0.0000   0.2237
  22.500   1.6778   0.11042   0.10696  -0.0460  0.0851  1.0000  -4.9227   0.0000   0.2232
  23.000   1.6585   0.11869   0.11530  -0.0484  0.0803  1.0000  -5.0047   0.0000   0.2234
  23.500   1.6496   0.12574   0.12245  -0.0508  0.0773  1.0000  -5.1238   0.0000   0.2234
  24.000   1.6290   0.13443   0.13121  -0.0541  0.0728  1.0000  -5.1929   0.0000   0.2242
  24.500   1.6248   0.14084   0.13769  -0.0569  0.0698  1.0000  -5.3263   0.0000   0.2244
  25.000   1.6058   0.14948   0.14640  -0.0609  0.0656  1.0000  -5.3932   0.0000   0.2256
  25.500   1.5967   0.15677   0.15378  -0.0648  0.0632  1.0000  -5.4986   0.0000   0.2266
  26.000   1.5818   0.16494   0.16203  -0.0694  0.0602  1.0000  -5.5739   0.0000   0.2281
  26.500   1.5709   0.17249   0.16967  -0.0739  0.0576  1.0000  -5.6635   0.0000   0.2296
  27.000   1.5690   0.17866   0.17589  -0.0781  0.0548  1.0000  -5.7936   0.0000   0.2305
  27.500   1.5569   0.18652   0.18382  -0.0833  0.0519  1.0000  -5.8692   0.0000   0.2325
  28.000   1.5485   0.19379   0.19116  -0.0886  0.0491  1.0000  -5.9612   0.0000   0.2343
  28.500   1.5369   0.20162   0.19906  -0.0943  0.0459  1.0000  -6.0364   0.0000   0.2366
  29.000   1.5329   0.20815   0.20562  -0.0995  0.0426  1.0000  -6.1514   0.0000   0.2382
  29.500   1.5226   0.21577   0.21331  -0.1056  0.0394  1.0000  -6.2244   0.0000   0.2407
  30.000   1.5092   0.22388   0.22146  -0.1121  0.0354  1.0000  -6.2730   0.0000   0.2437
  30.500   1.4944   0.23230   0.22990  -0.1191  0.0300  1.0000  -6.3052   0.0000   0.2471
  31.000   1.4720   0.24230   0.23992  -0.1272  0.0249  1.0000  -6.2752   0.0000   0.2519
  31.500   1.4616   0.25011   0.24775  -0.1341  0.0206  1.0000  -6.3169   0.0000   0.2552
  32.000   1.4449   0.25924   0.25690  -0.1419  0.0162  1.0000  -6.3031   0.0000   0.2596
  32.500   1.4246   0.26931   0.26698  -0.1504  0.0112  1.0000  -6.2453   0.0000   0.2651
  33.000   1.4111   0.27803   0.27574  -0.1582  0.0086  1.0000  -6.2275   0.0000   0.2695
  33.500   1.4026   0.28572   0.28348  -0.1654  0.0075  1.0000  -6.2397   0.0000   0.2732
  34.000   1.3982   0.29245   0.29028  -0.1720  0.0070  1.0000  -6.2824   0.0000   0.2761
  34.500   1.3937   0.29914   0.29703  -0.1787  0.0065  1.0000  -6.3175   0.0000   0.2791
  35.000   1.3913   0.30530   0.30324  -0.1850  0.0059  1.0000  -6.3715   0.0000   0.2816
  35.500   1.3908   0.31088   0.30889  -0.1912  0.0058  1.0000  -6.4485   0.0000   0.2837
  36.000   1.3931   0.31567   0.31373  -0.1968  0.0055  1.0000  -6.5544   0.0000   0.2851
  36.500   1.3914   0.32138   0.31950  -0.2031  0.0052  1.0000  -6.6124   0.0000   0.2873
  37.000   1.3891   0.32715   0.32531  -0.2095  0.0049  1.0000  -6.6585   0.0000   0.2897
  37.500   1.3896   0.33209   0.33028  -0.2155  0.0046  1.0000  -6.7429   0.0000   0.2913
  38.000   1.3914   0.33653   0.33478  -0.2212  0.0045  1.0000  -6.8483   0.0000   0.2925
  38.500   1.3942   0.34052   0.33881  -0.2268  0.0043  1.0000  -6.9807   0.0000   0.2934
  39.000   1.3971   0.34435   0.34268  -0.2322  0.0041  1.0000  -7.1172   0.0000   0.2941
  39.500   1.3971   0.34877   0.34714  -0.2381  0.0039  1.0000  -7.2123   0.0000   0.2955
  40.000   1.3991   0.35263   0.35102  -0.2437  0.0037  1.0000  -7.3374   0.0000   0.2963
  42.000   1.4037   0.36651   0.36505  -0.2661  0.0030  1.0000  -7.8005   0.0000   0.2992
  42.500   1.4053   0.36887   0.36744  -0.2716  0.0029  1.0000  -7.9312   0.0000   0.2996
  43.000   1.4064   0.37115   0.36974  -0.2770  0.0028  1.0000  -8.0574   0.0000   0.2999
  43.500   1.4053   0.37376   0.37238  -0.2828  0.0026  1.0000  -8.1395   0.0000   0.3008
  44.000   1.4063   0.37563   0.37426  -0.2882  0.0024  0.9999  -8.2685   0.0000   0.3009
  44.500   1.4081   0.37711   0.37576  -0.2934  0.0023  0.9999  -8.4164   0.0000   0.3006
  45.000   1.4061   0.37946   0.37816  -0.2992  0.0022  0.9999  -8.4890   0.0000   0.3014
  45.500   1.4051   0.38149   0.38024  -0.3048  0.0021  0.9999  -8.5984   0.0000   0.3017


