xflr5 v6.33

 Calculated polar for: Bell A821201 v4

 1 1 Reynolds number fixed          Mach number fixed         

 xtrf =   1.000 (top)        1.000 (bottom)
 Mach =   0.000     Re =     3.600 e 6     Ncrit =   9.000

  alpha     CL        CD       CDp       Cm    Top Xtr Bot Xtr   Cpmin    Chinge    XCp    
 ------- -------- --------- --------- -------- ------- ------- -------- --------- ---------
 -26.000  -0.6761   0.20278   0.20135  -0.0254  0.9937  0.0095  -7.0595   0.0000   0.1413
 -25.500  -0.6217   0.20724   0.20593  -0.0243  0.9906  0.0095  -6.1888   0.0000   0.1393
 -25.000  -0.5920   0.20734   0.20608  -0.0244  0.9890  0.0095  -5.7105   0.0000   0.1374
 -24.500  -0.5606   0.20575   0.20452  -0.0270  0.9858  0.0095  -5.2988   0.0000   0.1303
 -24.000  -0.5131   0.20144   0.20016  -0.0358  0.9544  0.0095  -4.9017   0.0000   0.1064
 -23.500  -0.4853   0.19913   0.19705  -0.0385  0.7759  0.0094  -4.5772   0.0000   0.0964
 -23.000  -0.4601   0.19622   0.19402  -0.0415  0.7415  0.0094  -4.3004   0.0000   0.0848
 -22.500  -0.4344   0.19266   0.19010  -0.0454  0.6440  0.0095  -4.0511   0.0000   0.0696
 -22.000  -0.4095   0.18956   0.18693  -0.0485  0.6242  0.0096  -3.7850   0.0000   0.0546
 -21.500  -0.3822   0.18713   0.18444  -0.0514  0.6095  0.0097  -3.4717   0.0000   0.0371
 -20.500  -0.9378   0.07468   0.07076  -0.1015  0.7574  0.0103  -9.7450   0.0000   0.0957
 -20.000  -0.9374   0.06859   0.06431  -0.1044  0.6743  0.0103  -9.6110   0.0000   0.0942
 -19.500  -0.9340   0.06312   0.05861  -0.1065  0.6390  0.0104  -9.4490   0.0000   0.0928
 -19.000  -0.9281   0.05814   0.05350  -0.1081  0.6238  0.0104  -9.2640   0.0000   0.0918
 -18.500  -0.9192   0.05368   0.04891  -0.1093  0.6101  0.0105  -9.0562   0.0000   0.0906
 -18.000  -0.9078   0.04964   0.04476  -0.1100  0.6033  0.0105  -8.8305   0.0000   0.0894
 -17.500  -0.8938   0.04594   0.04096  -0.1106  0.5946  0.0105  -8.5894   0.0000   0.0880
 -17.000  -0.8752   0.04286   0.03780  -0.1108  0.5878  0.0106  -8.3220   0.0000   0.0861
 -16.500  -0.8565   0.03985   0.03472  -0.1108  0.5856  0.0106  -8.0550   0.0000   0.0842
 -16.000  -0.8358   0.03709   0.03189  -0.1107  0.5828  0.0106  -7.7794   0.0000   0.0821
 -15.500  -0.8116   0.03470   0.02943  -0.1104  0.5792  0.0107  -7.4880   0.0000   0.0792
 -15.000  -0.7874   0.03233   0.02699  -0.1101  0.5749  0.0107  -7.2002   0.0000   0.0761
 -14.500  -0.7599   0.03031   0.02491  -0.1097  0.5704  0.0107  -6.8995   0.0000   0.0722
 -14.000  -0.7321   0.02831   0.02286  -0.1093  0.5666  0.0108  -6.6019   0.0000   0.0679
 -13.500  -0.7030   0.02650   0.02101  -0.1087  0.5650  0.0108  -6.3021   0.0000   0.0631
 -13.000  -0.6739   0.02479   0.01927  -0.1079  0.5645  0.0108  -6.0065   0.0000   0.0580
 -12.500  -0.6433   0.02321   0.01766  -0.1071  0.5638  0.0108  -5.7095   0.0000   0.0521
 -12.000  -0.6117   0.02165   0.01608  -0.1064  0.5630  0.0109  -5.4144   0.0000   0.0450
 -11.500  -0.5774   0.02027   0.01467  -0.1057  0.5619  0.0109  -5.1135   0.0000   0.0360
 -11.000  -0.5419   0.01887   0.01325  -0.1052  0.5607  0.0109  -4.8154   0.0000   0.0249
 -10.500  -0.5044   0.01749   0.01184  -0.1051  0.5592  0.0109  -4.5211   0.0000   0.0107
 -10.000  -0.4616   0.01609   0.01040  -0.1059  0.5573  0.0111  -4.2219   0.0000  -0.0109
  -9.500  -0.4099   0.01483   0.00909  -0.1082  0.5551  0.0112  -3.9009   0.0000  -0.0468
  -9.000  -0.3698   0.01364   0.00787  -0.1080  0.5530  0.0114  -3.6209   0.0000  -0.0757
  -8.500  -0.3340   0.01251   0.00670  -0.1069  0.5506  0.0117  -3.3591   0.0000  -0.1044
  -8.000  -0.3102   0.01147   0.00562  -0.1032  0.5480  0.0121  -3.1480   0.0000  -0.1171
  -7.500  -0.2851   0.01091   0.00505  -0.0982  0.5455  0.0124  -2.9425   0.0000  -0.1287
  -7.000  -0.2701   0.01056   0.00470  -0.0905  0.5427  0.0128  -2.7657   0.0000  -0.1183
  -6.500  -0.2351   0.01019   0.00433  -0.0866  0.5422  0.0134  -2.5447   0.0000  -0.1533
  -6.000  -0.1953   0.00985   0.00400  -0.0836  0.5413  0.0142  -2.3208   0.0000  -0.2158
  -5.500  -0.1546   0.00947   0.00365  -0.0807  0.5394  0.0177  -2.1031   0.0000  -0.3147
  -5.000  -0.1164   0.00902   0.00329  -0.0773  0.5377  0.0354  -1.8905   0.0000  -0.4652
  -4.500  -0.0773   0.00855   0.00295  -0.0741  0.5353  0.0644  -1.6791   0.0000  -0.7749
  -4.000  -0.0381   0.00808   0.00263  -0.0708  0.5317  0.1027  -1.4725   0.0000  -1.7269
  -3.000   0.0302   0.00692   0.00197  -0.0623  0.5240  0.2527  -1.1001   0.0000   2.4170
  -2.500   0.0504   0.00601   0.00155  -0.0552  0.5212  0.3952  -0.9495   0.0000   1.3919
  -2.000   0.0887   0.00538   0.00135  -0.0517  0.5204  0.5145  -0.8707   0.0000   0.8509
  -1.500   0.1447   0.00535   0.00137  -0.0515  0.5187  0.5346  -0.9223   0.0000   0.6117
  -1.000   0.2016   0.00540   0.00138  -0.0515  0.5144  0.5396  -0.9748   0.0000   0.5056
  -0.500   0.2571   0.00541   0.00138  -0.0513  0.5069  0.5487  -1.0268   0.0000   0.4465
   0.000   0.3125   0.00549   0.00145  -0.0510  0.5002  0.5546  -1.0815   0.0000   0.4082
   0.500   0.3699   0.00553   0.00147  -0.0513  0.4945  0.5560  -1.1385   0.0000   0.3819
   1.000   0.4257   0.00565   0.00151  -0.0512  0.4813  0.5575  -1.2036   0.0000   0.3624
   1.500   0.4803   0.00583   0.00160  -0.0510  0.4613  0.5589  -1.2698   0.0000   0.3472
   2.000   0.5316   0.00614   0.00177  -0.0502  0.4305  0.5600  -1.3340   0.0000   0.3344
   2.500   0.5829   0.00649   0.00197  -0.0494  0.4006  0.5605  -1.4014   0.0000   0.3240
   3.000   0.6362   0.00678   0.00217  -0.0491  0.3789  0.5608  -1.4719   0.0000   0.3157
   3.500   0.6928   0.00707   0.00236  -0.0496  0.3601  0.5619  -1.5456   0.0000   0.3094
   4.000   0.7536   0.00736   0.00257  -0.0511  0.3428  0.5640  -1.6234   0.0000   0.3049
   4.500   0.8168   0.00766   0.00281  -0.0532  0.3278  0.5662  -1.7038   0.0000   0.3015
   5.000   0.8836   0.00790   0.00302  -0.0560  0.3175  0.5687  -1.7946   0.0000   0.2991
   5.500   0.9552   0.00822   0.00330  -0.0600  0.3039  0.5708  -1.8980   0.0000   0.2979
   6.000   1.0266   0.00862   0.00362  -0.0640  0.2879  0.5724  -2.0026   0.0000   0.2969
   6.500   1.0864   0.00890   0.00388  -0.0655  0.2795  0.5739  -2.0980   0.0000   0.2941
   7.000   1.1396   0.00928   0.00422  -0.0657  0.2679  0.5753  -2.1879   0.0000   0.2907
   7.500   1.1921   0.00961   0.00453  -0.0657  0.2601  0.5767  -2.2782   0.0000   0.2874
   8.000   1.2411   0.01003   0.00491  -0.0651  0.2492  0.5779  -2.3656   0.0000   0.2840
   8.500   1.2887   0.01043   0.00530  -0.0644  0.2416  0.5792  -2.4636   0.0000   0.2806
   9.000   1.3329   0.01093   0.00577  -0.0631  0.2317  0.5803  -2.5666   0.0000   0.2771
   9.500   1.3761   0.01145   0.00628  -0.0618  0.2242  0.5813  -2.6696   0.0000   0.2738
  10.000   1.4155   0.01210   0.00690  -0.0599  0.2149  0.5821  -2.7686   0.0000   0.2703
  10.500   1.4529   0.01283   0.00762  -0.0579  0.2081  0.5827  -2.8661   0.0000   0.2669
  11.000   1.4864   0.01375   0.00853  -0.0556  0.1992  0.5834  -2.9590   0.0000   0.2635
  11.500   1.5226   0.01467   0.00948  -0.0540  0.1944  0.5871  -3.0608   0.0000   0.2606
  12.000   1.5485   0.01617   0.01099  -0.0515  0.1860  0.5911  -3.1492   0.0000   0.2574
  12.500   1.5814   0.01755   0.01243  -0.0503  0.1821  0.5947  -3.2533   0.0000   0.2549
  13.000   1.6041   0.01981   0.01471  -0.0488  0.1753  0.5977  -3.3530   0.0000   0.2523
  13.500   1.6249   0.02228   0.01721  -0.0474  0.1681  0.6003  -3.4520   0.0000   0.2499
  14.000   1.6389   0.02526   0.02022  -0.0456  0.1605  0.6025  -3.5398   0.0000   0.2473
  14.500   1.6526   0.02844   0.02342  -0.0442  0.1537  0.6042  -3.6304   0.0000   0.2450
  15.000   1.6624   0.03201   0.02703  -0.0429  0.1490  0.6054  -3.7186   0.0000   0.2428
  15.500   1.6704   0.03572   0.03077  -0.0415  0.1428  0.6071  -3.8048   0.0000   0.2405
  16.000   1.6891   0.03872   0.03386  -0.0410  0.1405  0.6138  -3.9161   0.0000   0.2387
  16.500   1.6966   0.04258   0.03776  -0.0400  0.1341  0.6196  -4.0052   0.0000   0.2367
  17.000   1.7058   0.04646   0.04169  -0.0393  0.1288  0.6243  -4.0975   0.0000   0.2348
  17.500   1.7092   0.05086   0.04613  -0.0385  0.1227  0.6279  -4.1779   0.0000   0.2330
  18.000   1.7214   0.05451   0.04981  -0.0381  0.1168  0.6342  -4.2763   0.0000   0.2312
  18.500   1.7210   0.05954   0.05488  -0.0377  0.1105  0.6440  -4.3471   0.0000   0.2296
  19.000   1.7322   0.06343   0.05884  -0.0376  0.1061  0.6518  -4.4427   0.0000   0.2281
  19.500   1.7341   0.06842   0.06390  -0.0377  0.1019  0.6657  -4.5172   0.0000   0.2267
  20.000   1.7346   0.07365   0.06921  -0.0379  0.0973  0.6769  -4.5889   0.0000   0.2254
  20.500   1.7339   0.07910   0.07475  -0.0384  0.0924  0.6960  -4.6602   0.0000   0.2242
  21.000   1.7352   0.08445   0.08021  -0.0392  0.0878  0.7214  -4.7350   0.0000   0.2232
  21.500   1.7288   0.09086   0.08678  -0.0404  0.0835  0.7628  -4.8020   0.0000   0.2225
  22.500   1.7184   0.10541   0.10194  -0.0457  0.0751  1.0000  -5.0756   0.0000   0.2226
  23.000   1.7048   0.11283   0.10944  -0.0476  0.0713  1.0000  -5.1837   0.0000   0.2223
  23.500   1.6873   0.12085   0.11753  -0.0500  0.0676  1.0000  -5.2745   0.0000   0.2224
  24.000   1.6715   0.12878   0.12555  -0.0528  0.0641  1.0000  -5.3680   0.0000   0.2227
  24.500   1.6553   0.13679   0.13365  -0.0560  0.0612  1.0000  -5.4561   0.0000   0.2233
  25.000   1.6390   0.14490   0.14185  -0.0596  0.0582  1.0000  -5.5396   0.0000   0.2242
  25.500   1.6378   0.15091   0.14792  -0.0627  0.0561  1.0000  -5.6851   0.0000   0.2244
  26.000   1.6203   0.15934   0.15641  -0.0672  0.0528  1.0000  -5.7551   0.0000   0.2258
  26.500   1.6105   0.16663   0.16380  -0.0715  0.0506  1.0000  -5.8558   0.0000   0.2270
  27.000   1.5941   0.17496   0.17219  -0.0765  0.0476  1.0000  -5.9204   0.0000   0.2288
  27.500   1.5835   0.18245   0.17976  -0.0815  0.0449  1.0000  -6.0087   0.0000   0.2305
  28.000   1.5750   0.18962   0.18696  -0.0865  0.0410  1.0000  -6.1093   0.0000   0.2321
  28.500   1.5604   0.19786   0.19526  -0.0924  0.0374  1.0000  -6.1733   0.0000   0.2345
  29.000   1.5431   0.20661   0.20405  -0.0988  0.0331  1.0000  -6.2151   0.0000   0.2374
  29.500   1.5209   0.21629   0.21376  -0.1061  0.0277  1.0000  -6.2189   0.0000   0.2412
  30.000   1.5018   0.22544   0.22295  -0.1133  0.0233  1.0000  -6.2308   0.0000   0.2449
  30.500   1.4843   0.23441   0.23196  -0.1206  0.0195  1.0000  -6.2428   0.0000   0.2488
  31.000   1.4660   0.24370   0.24129  -0.1283  0.0156  1.0000  -6.2376   0.0000   0.2530
  31.500   1.4441   0.25388   0.25149  -0.1366  0.0106  1.0000  -6.1932   0.0000   0.2582
  32.000   1.4301   0.26260   0.26025  -0.1442  0.0081  1.0000  -6.1927   0.0000   0.2624
  32.500   1.4282   0.26879   0.26648  -0.1502  0.0071  1.0000  -6.2800   0.0000   0.2646
  33.000   1.4212   0.27602   0.27378  -0.1570  0.0065  1.0000  -6.3204   0.0000   0.2678
  33.500   1.4150   0.28313   0.28096  -0.1637  0.0059  1.0000  -6.3589   0.0000   0.2709
  34.000   1.4179   0.28805   0.28593  -0.1692  0.0057  1.0000  -6.4776   0.0000   0.2722
  34.500   1.4144   0.29435   0.29230  -0.1756  0.0054  1.0000  -6.5335   0.0000   0.2748
  35.000   1.4105   0.30075   0.29877  -0.1822  0.0052  1.0000  -6.5817   0.0000   0.2775
  35.500   1.4096   0.30638   0.30444  -0.1883  0.0048  1.0000  -6.6631   0.0000   0.2796
  36.000   1.4061   0.31246   0.31059  -0.1948  0.0045  1.0000  -6.7135   0.0000   0.2821
  36.500   1.4092   0.31682   0.31499  -0.2003  0.0044  1.0000  -6.8375   0.0000   0.2831
  37.000   1.4081   0.32213   0.32036  -0.2064  0.0043  1.0000  -6.9103   0.0000   0.2851
  37.500   1.4073   0.32726   0.32554  -0.2124  0.0041  1.0000  -6.9887   0.0000   0.2869
  38.000   1.4079   0.33187   0.33019  -0.2182  0.0039  1.0000  -7.0911   0.0000   0.2883
  38.500   1.4045   0.33752   0.33588  -0.2247  0.0036  0.9999  -7.1468   0.0000   0.2906
  39.000   1.4046   0.34204   0.34044  -0.2306  0.0033  0.9999  -7.2483   0.0000   0.2919
  39.500   1.4046   0.34648   0.34493  -0.2364  0.0033  0.9999  -7.3495   0.0000   0.2933
  40.000   1.4074   0.34995   0.34843  -0.2418  0.0031  0.9999  -7.4937   0.0000   0.2938
  40.500   1.4087   0.35374   0.35226  -0.2473  0.0030  0.9999  -7.6171   0.0000   0.2945
  41.000   1.4082   0.35785   0.35641  -0.2532  0.0029  0.9999  -7.7133   0.0000   0.2957
  41.500   1.4093   0.36135   0.35993  -0.2587  0.0027  0.9999  -7.8362   0.0000   0.2963
  42.000   1.4068   0.36546   0.36408  -0.2648  0.0025  0.9999  -7.8941   0.0000   0.2979
  42.500   1.4075   0.36817   0.36680  -0.2704  0.0023  0.9998  -8.0099   0.0000   0.2984
  43.000   1.4077   0.37066   0.36934  -0.2760  0.0023  0.9998  -8.1187   0.0000   0.2990
  43.500   1.4081   0.37281   0.37152  -0.2816  0.0022  0.9998  -8.2349   0.0000   0.2994
  44.000   1.4093   0.37457   0.37331  -0.2869  0.0021  0.9998  -8.3697   0.0000   0.2995
  44.500   1.4076   0.37692   0.37570  -0.2928  0.0020  0.9998  -8.4476   0.0000   0.3003
  45.000   1.4076   0.37869   0.37750  -0.2982  0.0019  0.9998  -8.5662   0.0000   0.3005
  45.500   1.4061   0.38074   0.37957  -0.3038  0.0018  0.9997  -8.6651   0.0000   0.3009


