xflr5 v6.33

 Calculated polar for: Bell A821201 v4

 1 1 Reynolds number fixed          Mach number fixed         

 xtrf =   1.000 (top)        1.000 (bottom)
 Mach =   0.000     Re =     4.700 e 6     Ncrit =   9.000

  alpha     CL        CD       CDp       Cm    Top Xtr Bot Xtr   Cpmin    Chinge    XCp    
 ------- -------- --------- --------- -------- ------- ------- -------- --------- ---------
 -27.500  -0.7462   0.20897   0.20756  -0.0198  0.9941  0.0089  -8.0809   0.0000   0.1501
 -27.000  -0.7658   0.19593   0.19441  -0.0294  0.9936  0.0091  -8.5749   0.0000   0.1405
 -26.500  -0.7796   0.18428   0.18265  -0.0384  0.9930  0.0093  -8.9053   0.0000   0.1316
 -26.000  -0.7956   0.17265   0.17091  -0.0470  0.9919  0.0094  -9.2004   0.0000   0.1239
 -25.500  -0.8258   0.16348   0.16165  -0.0495  0.9904  0.0094  -9.4728   0.0000   0.1259
 -25.000  -0.8557   0.15186   0.14990  -0.0560  0.9898  0.0095  -9.7820   0.0000   0.1230
 -24.500  -0.8877   0.13965   0.13755  -0.0632  0.9889  0.0095  -10.0813   0.0000   0.1198
 -24.000  -0.9204   0.12734   0.12508  -0.0704  0.9876  0.0096  -10.3480   0.0000   0.1169
 -23.500  -0.9488   0.11595   0.11354  -0.0770  0.9857  0.0096  -10.5359   0.0000   0.1145
 -23.000  -0.9776   0.10463   0.10206  -0.0834  0.9826  0.0096  -10.6975   0.0000   0.1125
 -22.500  -0.9874   0.09390   0.09063  -0.0921  0.8312  0.0096  -10.7198   0.0000   0.1063
 -22.000  -1.0061   0.08503   0.08146  -0.0965  0.7875  0.0097  -10.7437   0.0000   0.1055
 -21.500  -1.0151   0.07781   0.07408  -0.0997  0.7714  0.0097  -10.6752   0.0000   0.1049
 -21.000  -1.0226   0.07091   0.06701  -0.1026  0.7537  0.0097  -10.5853   0.0000   0.1045
 -20.500  -1.0215   0.06515   0.06088  -0.1051  0.6632  0.0098  -10.4297   0.0000   0.1034
 -20.000  -1.0168   0.06003   0.05558  -0.1069  0.6335  0.0098  -10.2420   0.0000   0.1025
 -19.500  -1.0094   0.05540   0.05082  -0.1082  0.6184  0.0098  -10.0320   0.0000   0.1017
 -19.000  -0.9998   0.05121   0.04652  -0.1091  0.6074  0.0099  -9.8049   0.0000   0.1011
 -18.500  -0.9845   0.04768   0.04289  -0.1096  0.5987  0.0099  -9.5421   0.0000   0.0999
 -18.000  -0.9682   0.04434   0.03946  -0.1099  0.5882  0.0100  -9.2739   0.0000   0.0988
 -17.500  -0.9520   0.04111   0.03616  -0.1100  0.5858  0.0100  -9.0061   0.0000   0.0978
 -17.000  -0.9295   0.03852   0.03351  -0.1099  0.5824  0.0100  -8.7052   0.0000   0.0960
 -16.500  -0.9090   0.03581   0.03073  -0.1097  0.5784  0.0101  -8.4178   0.0000   0.0945
 -16.000  -0.8830   0.03360   0.02845  -0.1094  0.5728  0.0101  -8.1039   0.0000   0.0920
 -15.500  -0.8590   0.03126   0.02605  -0.1091  0.5673  0.0102  -7.8043   0.0000   0.0897
 -15.000  -0.8306   0.02937   0.02411  -0.1085  0.5650  0.0102  -7.4858   0.0000   0.0867
 -14.500  -0.8043   0.02732   0.02203  -0.1079  0.5646  0.0103  -7.1822   0.0000   0.0839
 -14.000  -0.7740   0.02567   0.02034  -0.1071  0.5639  0.0103  -6.8633   0.0000   0.0802
 -13.500  -0.7459   0.02391   0.01855  -0.1063  0.5631  0.0103  -6.5593   0.0000   0.0767
 -13.000  -0.7142   0.02245   0.01707  -0.1054  0.5621  0.0104  -6.2439   0.0000   0.0721
 -12.500  -0.6828   0.02091   0.01550  -0.1046  0.5608  0.0104  -5.9361   0.0000   0.0670
 -12.000  -0.6486   0.01954   0.01411  -0.1039  0.5591  0.0105  -5.6221   0.0000   0.0603
 -11.500  -0.6128   0.01821   0.01275  -0.1033  0.5573  0.0105  -5.3087   0.0000   0.0522
 -11.000  -0.5747   0.01693   0.01144  -0.1031  0.5551  0.0106  -4.9935   0.0000   0.0415
 -10.500  -0.5322   0.01573   0.01021  -0.1034  0.5522  0.0106  -4.6701   0.0000   0.0263
 -10.000  -0.4802   0.01463   0.00908  -0.1054  0.5486  0.0107  -4.3237   0.0000   0.0003
  -9.500  -0.4245   0.01360   0.00803  -0.1079  0.5457  0.0107  -3.9757   0.0000  -0.0358
  -9.000  -0.3817   0.01258   0.00700  -0.1079  0.5433  0.0108  -3.6763   0.0000  -0.0652
  -8.500  -0.3477   0.01152   0.00592  -0.1063  0.5425  0.0108  -3.4111   0.0000  -0.0888
  -8.000  -0.3213   0.01081   0.00520  -0.1020  0.5423  0.0109  -3.1749   0.0000  -0.1007
  -7.500  -0.2941   0.01034   0.00473  -0.0970  0.5419  0.0109  -2.9528   0.0000  -0.1131
  -7.000  -0.2759   0.00995   0.00433  -0.0898  0.5412  0.0113  -2.7807   0.0000  -0.1082
  -6.500  -0.2394   0.00958   0.00396  -0.0862  0.5399  0.0122  -2.5696   0.0000  -0.1443
  -6.000  -0.1983   0.00925   0.00365  -0.0833  0.5375  0.0132  -2.3389   0.0000  -0.2077
  -5.500  -0.1546   0.00897   0.00337  -0.0810  0.5349  0.0147  -2.1083   0.0000  -0.3168
  -5.000  -0.1125   0.00863   0.00308  -0.0783  0.5317  0.0231  -1.8855   0.0000  -0.4982
  -4.500  -0.0722   0.00825   0.00277  -0.0752  0.5265  0.0453  -1.6714   0.0000  -0.8625
  -4.000  -0.0315   0.00787   0.00251  -0.0722  0.5221  0.0759  -1.4616   0.0000  -2.1821
  -3.500   0.0091   0.00743   0.00224  -0.0692  0.5211  0.1204  -1.2589   0.0000   8.2607
  -3.000   0.0450   0.00684   0.00193  -0.0652  0.5204  0.1951  -1.0731   0.0000   1.7645
  -2.500   0.0749   0.00614   0.00160  -0.0600  0.5193  0.3015  -0.9055   0.0000   1.0818
  -2.000   0.0978   0.00526   0.00121  -0.0533  0.5173  0.4481  -0.8763   0.0000   0.8118
  -1.500   0.1502   0.00499   0.00115  -0.0526  0.5120  0.5188  -0.9258   0.0000   0.6058
  -1.000   0.2069   0.00502   0.00118  -0.0526  0.5028  0.5362  -0.9781   0.0000   0.5046
  -0.500   0.2645   0.00507   0.00121  -0.0528  0.4991  0.5391  -1.0315   0.0000   0.4468
   0.000   0.3219   0.00511   0.00124  -0.0531  0.4913  0.5478  -1.0877   0.0000   0.4098
   0.500   0.3795   0.00521   0.00129  -0.0534  0.4797  0.5512  -1.1448   0.0000   0.3841
   1.000   0.4360   0.00539   0.00137  -0.0536  0.4574  0.5531  -1.2110   0.0000   0.3650
   1.500   0.4901   0.00572   0.00154  -0.0533  0.4225  0.5549  -1.2766   0.0000   0.3499
   2.000   0.5443   0.00603   0.00173  -0.0532  0.3944  0.5568  -1.3430   0.0000   0.3379
   2.500   0.5994   0.00632   0.00192  -0.0532  0.3728  0.5584  -1.4142   0.0000   0.3282
   3.000   0.6571   0.00658   0.00210  -0.0538  0.3554  0.5592  -1.4884   0.0000   0.3206
   3.500   0.7166   0.00684   0.00228  -0.0549  0.3397  0.5597  -1.5647   0.0000   0.3146
   4.000   0.7776   0.00713   0.00249  -0.0564  0.3243  0.5601  -1.6430   0.0000   0.3098
   4.500   0.8411   0.00739   0.00270  -0.0584  0.3137  0.5604  -1.7241   0.0000   0.3060
   5.000   0.9079   0.00764   0.00291  -0.0612  0.3026  0.5607  -1.8170   0.0000   0.3033
   5.500   0.9823   0.00801   0.00320  -0.0658  0.2859  0.5610  -1.9234   0.0000   0.3023
   6.000   1.0466   0.00830   0.00344  -0.0682  0.2759  0.5630  -2.0220   0.0000   0.2998
   6.500   1.1050   0.00857   0.00368  -0.0693  0.2667  0.5652  -2.1164   0.0000   0.2966
   7.000   1.1581   0.00891   0.00398  -0.0695  0.2568  0.5675  -2.2067   0.0000   0.2931
   7.500   1.2100   0.00922   0.00427  -0.0693  0.2478  0.5700  -2.2966   0.0000   0.2896
   8.000   1.2578   0.00964   0.00465  -0.0685  0.2369  0.5723  -2.3831   0.0000   0.2860
   8.500   1.3074   0.00998   0.00499  -0.0680  0.2294  0.5743  -2.4855   0.0000   0.2827
   9.000   1.3496   0.01050   0.00547  -0.0663  0.2193  0.5761  -2.5866   0.0000   0.2790
   9.500   1.3954   0.01092   0.00589  -0.0653  0.2127  0.5778  -2.6930   0.0000   0.2758
  10.000   1.4332   0.01158   0.00651  -0.0631  0.2036  0.5792  -2.7906   0.0000   0.2721
  10.500   1.4743   0.01214   0.00708  -0.0616  0.1975  0.5805  -2.8932   0.0000   0.2689
  11.000   1.5091   0.01295   0.00788  -0.0592  0.1908  0.5816  -2.9891   0.0000   0.2655
  11.500   1.5433   0.01384   0.00877  -0.0571  0.1839  0.5823  -3.0889   0.0000   0.2622
  12.000   1.5768   0.01485   0.00981  -0.0551  0.1792  0.5828  -3.1898   0.0000   0.2592
  12.500   1.5998   0.01653   0.01146  -0.0524  0.1698  0.5836  -3.2816   0.0000   0.2559
  13.000   1.6276   0.01828   0.01326  -0.0509  0.1645  0.5877  -3.3914   0.0000   0.2533
  13.500   1.6444   0.02098   0.01596  -0.0491  0.1551  0.5923  -3.4844   0.0000   0.2507
  14.000   1.6640   0.02354   0.01857  -0.0477  0.1505  0.5963  -3.5824   0.0000   0.2483
  14.500   1.6783   0.02655   0.02161  -0.0461  0.1446  0.5994  -3.6763   0.0000   0.2459
  15.000   1.6984   0.02931   0.02443  -0.0452  0.1417  0.6020  -3.7856   0.0000   0.2438
  15.500   1.7110   0.03263   0.02780  -0.0440  0.1375  0.6040  -3.8845   0.0000   0.2416
  16.000   1.7157   0.03660   0.03180  -0.0425  0.1301  0.6053  -3.9694   0.0000   0.2394
  16.500   1.7253   0.04029   0.03552  -0.0415  0.1255  0.6068  -4.0641   0.0000   0.2373
  17.000   1.7274   0.04468   0.03994  -0.0404  0.1184  0.6139  -4.1429   0.0000   0.2353
  17.500   1.7387   0.04830   0.04360  -0.0398  0.1133  0.6203  -4.2406   0.0000   0.2335
  18.000   1.7416   0.05281   0.04815  -0.0391  0.1074  0.6251  -4.3201   0.0000   0.2317
  18.500   1.7485   0.05703   0.05242  -0.0387  0.1036  0.6288  -4.4079   0.0000   0.2300
  19.000   1.7547   0.06134   0.05677  -0.0384  0.0981  0.6381  -4.4935   0.0000   0.2284
  19.500   1.7593   0.06600   0.06152  -0.0384  0.0947  0.6477  -4.5753   0.0000   0.2269
  21.000   1.7549   0.08231   0.07802  -0.0394  0.0798  0.6865  -4.7851   0.0000   0.2232
  21.500   1.7495   0.08845   0.08427  -0.0403  0.0761  0.7054  -4.8740   0.0000   0.2222
  22.000   1.7401   0.09517   0.09112  -0.0416  0.0718  0.7356  -5.0017   0.0000   0.2216
  22.500   1.7302   0.10219   0.09831  -0.0434  0.0682  0.7845  -5.1265   0.0000   0.2212
  24.000   1.7017   0.12475   0.12151  -0.0519  0.0580  1.0000  -5.4915   0.0000   0.2217
  24.500   1.6902   0.13209   0.12893  -0.0547  0.0559  1.0000  -5.6028   0.0000   0.2220
  25.000   1.6702   0.14056   0.13748  -0.0582  0.0526  1.0000  -5.6753   0.0000   0.2228
  25.500   1.6584   0.14803   0.14505  -0.0618  0.0505  1.0000  -5.7781   0.0000   0.2235
  26.000   1.6391   0.15667   0.15375  -0.0662  0.0472  1.0000  -5.8427   0.0000   0.2248
  26.500   1.6268   0.16431   0.16148  -0.0706  0.0450  1.0000  -5.9347   0.0000   0.2260
  27.000   1.6076   0.17297   0.17020  -0.0757  0.0416  1.0000  -5.9887   0.0000   0.2280
  27.500   1.5999   0.17993   0.17719  -0.0803  0.0378  1.0000  -6.0950   0.0000   0.2292
  28.000   1.5802   0.18889   0.18621  -0.0863  0.0333  1.0000  -6.1396   0.0000   0.2318
  28.500   1.5551   0.19886   0.19620  -0.0931  0.0278  1.0000  -6.1460   0.0000   0.2351
  29.000   1.5338   0.20833   0.20572  -0.1000  0.0236  1.0000  -6.1634   0.0000   0.2385
  29.500   1.5151   0.21742   0.21486  -0.1069  0.0199  1.0000  -6.1862   0.0000   0.2420
  30.000   1.4963   0.22654   0.22403  -0.1141  0.0164  1.0000  -6.1985   0.0000   0.2457
  30.500   1.4746   0.23635   0.23388  -0.1219  0.0118  1.0000  -6.1802   0.0000   0.2502
  31.000   1.4544   0.24612   0.24369  -0.1299  0.0084  1.0000  -6.1584   0.0000   0.2549
  31.500   1.4436   0.25411   0.25174  -0.1368  0.0071  1.0000  -6.1922   0.0000   0.2583
  32.000   1.4430   0.25996   0.25763  -0.1424  0.0064  1.0000  -6.2976   0.0000   0.2602
  32.500   1.4377   0.26677   0.26451  -0.1488  0.0059  1.0000  -6.3618   0.0000   0.2629
  33.000   1.4337   0.27325   0.27106  -0.1550  0.0057  1.0000  -6.4329   0.0000   0.2654
  33.500   1.4351   0.27854   0.27639  -0.1606  0.0054  1.0000  -6.5461   0.0000   0.2669
  34.000   1.4291   0.28539   0.28331  -0.1673  0.0050  0.9999  -6.5901   0.0000   0.2699
  34.500   1.4227   0.29229   0.29028  -0.1741  0.0046  0.9999  -6.6230   0.0000   0.2729
  35.000   1.4265   0.29677   0.29480  -0.1794  0.0045  0.9999  -6.7530   0.0000   0.2739
  35.500   1.4239   0.30265   0.30076  -0.1857  0.0044  0.9999  -6.8264   0.0000   0.2762
  36.000   1.4269   0.30709   0.30523  -0.1911  0.0042  0.9999  -6.9572   0.0000   0.2772
  36.500   1.4232   0.31308   0.31128  -0.1976  0.0040  0.9999  -7.0124   0.0000   0.2797
  37.000   1.4240   0.31781   0.31605  -0.2033  0.0038  0.9999  -7.1158   0.0000   0.2811
  37.500   1.4192   0.32391   0.32220  -0.2100  0.0035  0.9999  -7.1516   0.0000   0.2837
  38.000   1.4154   0.32966   0.32802  -0.2165  0.0033  0.9999  -7.2035   0.0000   0.2861
  38.500   1.4190   0.33334   0.33173  -0.2218  0.0032  0.9998  -7.3609   0.0000   0.2867
  39.000   1.4173   0.33831   0.33675  -0.2280  0.0031  0.9998  -7.4466   0.0000   0.2884
  39.500   1.4196   0.34204   0.34052  -0.2334  0.0030  0.9998  -7.5892   0.0000   0.2891
  40.000   1.4169   0.34702   0.34554  -0.2397  0.0029  0.9998  -7.6578   0.0000   0.2910
  40.500   1.4178   0.35090   0.34945  -0.2453  0.0027  0.9998  -7.7809   0.0000   0.2918
  41.000   1.4135   0.35613   0.35472  -0.2518  0.0025  0.9998  -7.8192   0.0000   0.2939
  41.500   1.4135   0.35998   0.35860  -0.2575  0.0023  0.9998  -7.9259   0.0000   0.2948
  42.000   1.4122   0.36386   0.36253  -0.2634  0.0022  0.9997  -8.0123   0.0000   0.2960
  42.500   1.4140   0.36635   0.36504  -0.2687  0.0022  0.9997  -8.1547   0.0000   0.2962
  43.000   1.4155   0.36855   0.36728  -0.2741  0.0021  0.9997  -8.2932   0.0000   0.2965
  43.500   1.4135   0.37132   0.37009  -0.2801  0.0020  0.9997  -8.3676   0.0000   0.2975
  44.000   1.4143   0.37316   0.37194  -0.2855  0.0019  0.9997  -8.4986   0.0000   0.2977
  44.500   1.4111   0.37584   0.37466  -0.2916  0.0018  0.9997  -8.5506   0.0000   0.2989
  45.000   1.4097   0.37791   0.37675  -0.2973  0.0016  0.9996  -8.6406   0.0000   0.2995
  45.500   1.4076   0.38013   0.37899  -0.3031  0.0014  0.9996  -8.7211   0.0000   0.3001


