xflr5 v6.33

 Calculated polar for: Bell A821201 v4

 1 1 Reynolds number fixed          Mach number fixed         

 xtrf =   1.000 (top)        1.000 (bottom)
 Mach =   0.000     Re =     2.900 e 6     Ncrit =   9.000

  alpha     CL        CD       CDp       Cm    Top Xtr Bot Xtr   Cpmin    Chinge    XCp    
 ------- -------- --------- --------- -------- ------- ------- -------- --------- ---------
 -24.500  -0.7450   0.16798   0.16609  -0.0443  0.9940  0.0104  -8.1675   0.0000   0.1269
 -24.000  -0.7673   0.15451   0.15246  -0.0538  0.9930  0.0104  -8.5124   0.0000   0.1183
 -23.500  -0.7901   0.14346   0.14127  -0.0598  0.9908  0.0105  -8.7437   0.0000   0.1151
 -23.000  -0.8158   0.13259   0.13025  -0.0651  0.9898  0.0105  -8.9527   0.0000   0.1134
 -22.500  -0.8379   0.12172   0.11924  -0.0712  0.9882  0.0106  -9.1117   0.0000   0.1104
 -22.000  -0.8541   0.11164   0.10902  -0.0770  0.9857  0.0106  -9.1974   0.0000   0.1072
 -21.500  -0.8710   0.10168   0.09891  -0.0826  0.9807  0.0106  -9.2652   0.0000   0.1044
 -21.000  -0.8536   0.09150   0.08793  -0.0942  0.8064  0.0107  -9.1437   0.0000   0.0896
 -20.500  -0.8632   0.08358   0.07978  -0.0981  0.7771  0.0107  -9.1127   0.0000   0.0880
 -20.000  -0.8669   0.07677   0.07278  -0.1012  0.7565  0.0107  -9.0244   0.0000   0.0865
 -19.500  -0.8663   0.07046   0.06608  -0.1044  0.6697  0.0108  -8.9021   0.0000   0.0843
 -19.000  -0.8626   0.06484   0.06024  -0.1067  0.6385  0.0108  -8.7494   0.0000   0.0824
 -18.500  -0.8554   0.05986   0.05513  -0.1084  0.6243  0.0108  -8.5675   0.0000   0.0807
 -18.000  -0.8453   0.05536   0.05049  -0.1098  0.6108  0.0108  -8.3644   0.0000   0.0788
 -17.500  -0.8330   0.05130   0.04634  -0.1107  0.6050  0.0108  -8.1450   0.0000   0.0769
 -17.000  -0.8160   0.04780   0.04273  -0.1113  0.5979  0.0109  -7.8989   0.0000   0.0743
 -16.500  -0.7980   0.04451   0.03934  -0.1118  0.5892  0.0109  -7.6473   0.0000   0.0715
 -16.000  -0.7796   0.04138   0.03614  -0.1120  0.5871  0.0109  -7.3942   0.0000   0.0689
 -15.500  -0.7653   0.03814   0.03281  -0.1117  0.5851  0.0110  -7.1791   0.0000   0.0677
 -15.000  -0.7507   0.03502   0.02960  -0.1112  0.5825  0.0110  -6.9616   0.0000   0.0665
 -14.500  -0.7327   0.03222   0.02671  -0.1107  0.5797  0.0111  -6.7256   0.0000   0.0645
 -14.000  -0.7096   0.02991   0.02433  -0.1101  0.5766  0.0112  -6.4651   0.0000   0.0611
 -13.500  -0.6859   0.02765   0.02198  -0.1095  0.5731  0.0113  -6.2034   0.0000   0.0573
 -13.000  -0.6578   0.02581   0.02009  -0.1088  0.5693  0.0113  -5.9238   0.0000   0.0520
 -12.500  -0.6298   0.02399   0.01821  -0.1082  0.5659  0.0114  -5.6480   0.0000   0.0462
 -12.000  -0.5986   0.02242   0.01660  -0.1074  0.5648  0.0115  -5.3617   0.0000   0.0388
 -11.500  -0.5663   0.02086   0.01501  -0.1068  0.5643  0.0116  -5.0758   0.0000   0.0299
 -11.000  -0.5307   0.01942   0.01355  -0.1064  0.5635  0.0117  -4.7828   0.0000   0.0180
 -10.500  -0.4906   0.01810   0.01221  -0.1067  0.5626  0.0119  -4.4797   0.0000   0.0008
 -10.000  -0.4431   0.01683   0.01092  -0.1082  0.5613  0.0121  -4.1598   0.0000  -0.0269
  -9.500  -0.3982   0.01563   0.00970  -0.1090  0.5598  0.0122  -3.8554   0.0000  -0.0574
  -9.000  -0.3594   0.01449   0.00855  -0.1084  0.5584  0.0124  -3.5759   0.0000  -0.0864
  -8.500  -0.3233   0.01337   0.00742  -0.1073  0.5569  0.0127  -3.3105   0.0000  -0.1174
  -8.000  -0.2938   0.01225   0.00627  -0.1049  0.5553  0.0131  -3.0792   0.0000  -0.1433
  -7.500  -0.2716   0.01148   0.00547  -0.1000  0.5535  0.0133  -2.8865   0.0000  -0.1543
  -7.000  -0.2507   0.01101   0.00498  -0.0938  0.5512  0.0136  -2.6986   0.0000  -0.1599
  -6.500  -0.2282   0.01068   0.00462  -0.0875  0.5478  0.0143  -2.5187   0.0000  -0.1696
  -6.000  -0.1935   0.01035   0.00429  -0.0836  0.5436  0.0163  -2.3136   0.0000  -0.2206
  -5.500  -0.1557   0.00993   0.00391  -0.0802  0.5420  0.0230  -2.1016   0.0000  -0.3082
  -5.000  -0.1205   0.00937   0.00349  -0.0764  0.5406  0.0484  -1.8967   0.0000  -0.4330
  -4.500  -0.0826   0.00886   0.00313  -0.0730  0.5392  0.0819  -1.6876   0.0000  -0.6968
  -4.000  -0.0459   0.00828   0.00276  -0.0693  0.5370  0.1336  -1.4867   0.0000  -1.3554
  -3.500  -0.0134   0.00758   0.00236  -0.0648  0.5341  0.2144  -1.3003   0.0000  -4.8774
  -3.000   0.0157   0.00681   0.00196  -0.0596  0.5314  0.3227  -1.1266   0.0000   4.2349
  -2.500   0.0347   0.00576   0.00151  -0.0523  0.5282  0.4945  -0.9773   0.0000   1.8265
  -2.000   0.0865   0.00572   0.00153  -0.0513  0.5236  0.5259  -0.8691   0.0000   0.8617
  -1.500   0.1416   0.00579   0.00160  -0.0509  0.5209  0.5394  -0.9201   0.0000   0.6152
  -1.000   0.1968   0.00575   0.00159  -0.0505  0.5191  0.5481  -0.9716   0.0000   0.5071
  -0.500   0.2514   0.00580   0.00164  -0.0500  0.5149  0.5558  -1.0232   0.0000   0.4460
   0.000   0.3061   0.00586   0.00165  -0.0496  0.5078  0.5581  -1.0773   0.0000   0.4069
   0.500   0.3611   0.00593   0.00167  -0.0493  0.5005  0.5592  -1.1326   0.0000   0.3799
   1.000   0.4174   0.00598   0.00171  -0.0494  0.4946  0.5601  -1.1976   0.0000   0.3602
   1.500   0.4705   0.00612   0.00178  -0.0487  0.4811  0.5609  -1.2627   0.0000   0.3445
   2.000   0.5262   0.00626   0.00182  -0.0488  0.4601  0.5639  -1.3301   0.0000   0.3328
   2.500   0.5787   0.00657   0.00198  -0.0484  0.4279  0.5664  -1.3978   0.0000   0.3228
   3.000   0.6316   0.00690   0.00219  -0.0481  0.3997  0.5684  -1.4679   0.0000   0.3145
   3.500   0.6861   0.00721   0.00241  -0.0482  0.3783  0.5702  -1.5398   0.0000   0.3079
   4.000   0.7420   0.00752   0.00265  -0.0486  0.3596  0.5717  -1.6136   0.0000   0.3024
   4.500   0.7995   0.00785   0.00291  -0.0494  0.3427  0.5731  -1.6893   0.0000   0.2981
   5.000   0.8587   0.00819   0.00318  -0.0506  0.3286  0.5746  -1.7719   0.0000   0.2946
   5.500   0.9213   0.00847   0.00343  -0.0526  0.3179  0.5759  -1.8668   0.0000   0.2921
   6.000   0.9857   0.00884   0.00375  -0.0551  0.3041  0.5770  -1.9644   0.0000   0.2903
   6.500   1.0577   0.00927   0.00410  -0.0594  0.2892  0.5782  -2.0702   0.0000   0.2899
   7.000   1.1180   0.00959   0.00440  -0.0611  0.2805  0.5792  -2.1666   0.0000   0.2876
   7.500   1.1707   0.01003   0.00479  -0.0614  0.2681  0.5802  -2.2563   0.0000   0.2846
   8.000   1.2223   0.01040   0.00515  -0.0613  0.2604  0.5811  -2.3461   0.0000   0.2816
   8.500   1.2683   0.01091   0.00563  -0.0604  0.2495  0.5819  -2.4397   0.0000   0.2782
   9.000   1.3158   0.01135   0.00606  -0.0598  0.2427  0.5825  -2.5463   0.0000   0.2752
   9.500   1.3560   0.01200   0.00668  -0.0581  0.2322  0.5829  -2.6450   0.0000   0.2717
  10.000   1.3987   0.01260   0.00728  -0.0569  0.2256  0.5854  -2.7478   0.0000   0.2686
  10.500   1.4346   0.01347   0.00815  -0.0550  0.2154  0.5895  -2.8425   0.0000   0.2653
  11.000   1.4712   0.01436   0.00906  -0.0533  0.2093  0.5931  -2.9388   0.0000   0.2623
  11.500   1.4990   0.01573   0.01043  -0.0509  0.1997  0.5958  -3.0282   0.0000   0.2590
  12.000   1.5320   0.01701   0.01178  -0.0495  0.1957  0.5983  -3.1253   0.0000   0.2563
  12.500   1.5544   0.01920   0.01398  -0.0478  0.1882  0.6006  -3.2114   0.0000   0.2536
  13.000   1.5810   0.02128   0.01611  -0.0467  0.1829  0.6025  -3.3151   0.0000   0.2513
  13.500   1.6020   0.02378   0.01864  -0.0454  0.1772  0.6041  -3.4139   0.0000   0.2489
  14.000   1.6148   0.02694   0.02182  -0.0437  0.1691  0.6053  -3.4987   0.0000   0.2464
  14.500   1.6298   0.03012   0.02504  -0.0426  0.1633  0.6068  -3.5898   0.0000   0.2442
  15.000   1.6377   0.03384   0.02879  -0.0412  0.1552  0.6125  -3.6725   0.0000   0.2420
  15.500   1.6500   0.03731   0.03233  -0.0403  0.1508  0.6181  -3.7652   0.0000   0.2400
  16.000   1.6554   0.04139   0.03644  -0.0392  0.1445  0.6224  -3.8482   0.0000   0.2379
  16.500   1.6693   0.04486   0.04000  -0.0386  0.1414  0.6263  -3.9490   0.0000   0.2361
  17.000   1.6820   0.04837   0.04354  -0.0380  0.1361  0.6291  -4.0480   0.0000   0.2343
  17.500   1.6876   0.05268   0.04791  -0.0374  0.1297  0.6379  -4.1316   0.0000   0.2325
  18.000   1.6969   0.05676   0.05207  -0.0372  0.1246  0.6466  -4.2228   0.0000   0.2309
  18.500   1.7037   0.06103   0.05636  -0.0369  0.1180  0.6531  -4.3085   0.0000   0.2293
  19.000   1.7057   0.06602   0.06143  -0.0369  0.1126  0.6681  -4.3826   0.0000   0.2279
  19.500   1.7125   0.07053   0.06600  -0.0371  0.1072  0.6812  -4.4670   0.0000   0.2265
  20.000   1.7150   0.07561   0.07119  -0.0375  0.1036  0.6990  -4.5413   0.0000   0.2253
  21.000   1.7102   0.08741   0.08329  -0.0393  0.0942  0.7711  -4.6708   0.0000   0.2235
  21.500   1.6722   0.09240   0.08878  -0.0328  0.0902  0.9947  -4.6631   0.0000   0.2186
  22.000   1.7123   0.10038   0.09684  -0.0441  0.0851  1.0000  -4.8926   0.0000   0.2232
  22.500   1.6956   0.10819   0.10471  -0.0458  0.0802  1.0000  -4.9896   0.0000   0.2229
  23.000   1.6863   0.11510   0.11171  -0.0478  0.0772  1.0000  -5.1122   0.0000   0.2226
  23.500   1.6661   0.12356   0.12024  -0.0504  0.0726  1.0000  -5.1898   0.0000   0.2229
  24.000   1.6551   0.13091   0.12768  -0.0532  0.0697  1.0000  -5.3004   0.0000   0.2232
  24.500   1.6341   0.13963   0.13647  -0.0567  0.0654  1.0000  -5.3662   0.0000   0.2241
  25.000   1.6234   0.14703   0.14397  -0.0602  0.0630  1.0000  -5.4707   0.0000   0.2248
  25.500   1.6069   0.15534   0.15235  -0.0644  0.0600  1.0000  -5.5459   0.0000   0.2261
  26.000   1.5961   0.16288   0.15998  -0.0686  0.0576  1.0000  -5.6417   0.0000   0.2273
  26.500   1.5921   0.16931   0.16647  -0.0725  0.0548  1.0000  -5.7664   0.0000   0.2281
  27.000   1.5793   0.17715   0.17438  -0.0775  0.0518  1.0000  -5.8458   0.0000   0.2298
  27.500   1.5700   0.18449   0.18181  -0.0824  0.0494  1.0000  -5.9380   0.0000   0.2314
  28.000   1.5562   0.19261   0.18999  -0.0880  0.0460  1.0000  -6.0049   0.0000   0.2337
  28.500   1.5517   0.19921   0.19661  -0.0930  0.0426  1.0000  -6.1218   0.0000   0.2352
  29.000   1.5410   0.20686   0.20433  -0.0989  0.0395  1.0000  -6.2001   0.0000   0.2375
  29.500   1.5257   0.21533   0.21286  -0.1054  0.0357  1.0000  -6.2451   0.0000   0.2405
  30.000   1.5080   0.22418   0.22174  -0.1124  0.0304  1.0000  -6.2680   0.0000   0.2440
  30.500   1.4871   0.23376   0.23133  -0.1201  0.0251  1.0000  -6.2590   0.0000   0.2482
  31.000   1.4701   0.24277   0.24038  -0.1276  0.0211  1.0000  -6.2639   0.0000   0.2523
  31.500   1.4559   0.25136   0.24900  -0.1349  0.0170  1.0000  -6.2772   0.0000   0.2562
  32.000   1.4366   0.26107   0.25872  -0.1431  0.0119  1.0000  -6.2413   0.0000   0.2611
  32.500   1.4204   0.27034   0.26801  -0.1511  0.0087  1.0000  -6.2129   0.0000   0.2659
  33.000   1.4137   0.27760   0.27532  -0.1579  0.0074  1.0000  -6.2518   0.0000   0.2691
  33.500   1.4084   0.28447   0.28226  -0.1646  0.0069  1.0000  -6.2962   0.0000   0.2721
  34.000   1.4021   0.29160   0.28946  -0.1715  0.0063  1.0000  -6.3233   0.0000   0.2754
  34.500   1.4021   0.29724   0.29515  -0.1775  0.0059  1.0000  -6.4047   0.0000   0.2773
  35.000   1.4006   0.30307   0.30105  -0.1837  0.0057  1.0000  -6.4740   0.0000   0.2796
  35.500   1.3989   0.30892   0.30696  -0.1899  0.0054  1.0000  -6.5417   0.0000   0.2819
  36.000   1.3991   0.31419   0.31228  -0.1959  0.0051  1.0000  -6.6292   0.0000   0.2837
  36.500   1.3945   0.32064   0.31878  -0.2027  0.0048  1.0000  -6.6546   0.0000   0.2866
  37.000   1.3948   0.32574   0.32393  -0.2087  0.0045  1.0000  -6.7341   0.0000   0.2883
  37.500   1.3963   0.33029   0.32854  -0.2144  0.0044  1.0000  -6.8362   0.0000   0.2897
  38.000   1.3993   0.33440   0.33269  -0.2199  0.0043  1.0000  -6.9629   0.0000   0.2906
  40.000   1.4007   0.35214   0.35056  -0.2433  0.0033  1.0000  -7.3702   0.0000   0.2958
  40.500   1.4012   0.35613   0.35460  -0.2490  0.0032  1.0000  -7.4756   0.0000   0.2968
  41.000   1.4034   0.35947   0.35798  -0.2544  0.0031  1.0000  -7.6121   0.0000   0.2973
  41.500   1.4053   0.36266   0.36120  -0.2598  0.0030  0.9999  -7.7463   0.0000   0.2977
  42.000   1.4047   0.36610   0.36468  -0.2656  0.0029  0.9999  -7.8358   0.0000   0.2987
  42.500   1.4061   0.36859   0.36720  -0.2711  0.0027  0.9999  -7.9651   0.0000   0.2991
  43.000   1.4053   0.37138   0.37001  -0.2769  0.0025  0.9999  -8.0511   0.0000   0.3000
  43.500   1.4061   0.37347   0.37211  -0.2824  0.0023  0.9999  -8.1710   0.0000   0.3003
  44.000   1.4074   0.37523   0.37390  -0.2877  0.0022  0.9999  -8.3065   0.0000   0.3004
  44.500   1.4074   0.37720   0.37591  -0.2932  0.0022  0.9999  -8.4191   0.0000   0.3007
  45.000   1.4058   0.37939   0.37815  -0.2990  0.0021  0.9999  -8.5001   0.0000   0.3013
  45.500   1.4054   0.38118   0.37997  -0.3044  0.0020  0.9998  -8.6251   0.0000   0.3014


