xflr5 v6.33

 Calculated polar for: Bell A821201 v4

 1 1 Reynolds number fixed          Mach number fixed         

 xtrf =   1.000 (top)        1.000 (bottom)
 Mach =   0.000     Re =     4.500 e 6     Ncrit =   9.000

  alpha     CL        CD       CDp       Cm    Top Xtr Bot Xtr   Cpmin    Chinge    XCp    
 ------- -------- --------- --------- -------- ------- ------- -------- --------- ---------
 -27.500  -0.7092   0.21806   0.21675  -0.0144  0.9942  0.0088  -7.3274   0.0000   0.1552
 -27.000  -0.7584   0.19896   0.19745  -0.0264  0.9940  0.0092  -8.3805   0.0000   0.1439
 -26.500  -0.7741   0.18678   0.18516  -0.0357  0.9934  0.0093  -8.7572   0.0000   0.1347
 -26.000  -0.7838   0.17574   0.17403  -0.0445  0.9925  0.0094  -9.0004   0.0000   0.1259
 -25.500  -0.8140   0.16522   0.16340  -0.0489  0.9907  0.0095  -9.3246   0.0000   0.1254
 -25.000  -0.8400   0.15462   0.15269  -0.0543  0.9900  0.0096  -9.5877   0.0000   0.1233
 -24.500  -0.8688   0.14302   0.14095  -0.0610  0.9892  0.0096  -9.8611   0.0000   0.1202
 -24.000  -0.9004   0.13077   0.12855  -0.0682  0.9880  0.0096  -10.1305   0.0000   0.1171
 -23.500  -0.9327   0.11866   0.11628  -0.0752  0.9863  0.0097  -10.3665   0.0000   0.1146
 -23.000  -0.9620   0.10715   0.10460  -0.0818  0.9836  0.0097  -10.5415   0.0000   0.1124
 -22.500  -0.9844   0.09654   0.09383  -0.0881  0.9770  0.0097  -10.6353   0.0000   0.1099
 -22.000  -0.9861   0.08761   0.08409  -0.0953  0.7913  0.0097  -10.5721   0.0000   0.1043
 -21.500  -1.0010   0.07947   0.07577  -0.0991  0.7747  0.0098  -10.5549   0.0000   0.1038
 -21.000  -1.0062   0.07280   0.06894  -0.1019  0.7570  0.0098  -10.4526   0.0000   0.1031
 -20.500  -1.0065   0.06680   0.06258  -0.1046  0.6744  0.0098  -10.3109   0.0000   0.1020
 -20.000  -1.0042   0.06133   0.05690  -0.1066  0.6378  0.0099  -10.1436   0.0000   0.1012
 -19.500  -0.9980   0.05652   0.05196  -0.1080  0.6223  0.0099  -9.9443   0.0000   0.1004
 -19.000  -0.9875   0.05239   0.04771  -0.1089  0.6089  0.0100  -9.7143   0.0000   0.0996
 -18.500  -0.9743   0.04860   0.04382  -0.1096  0.6010  0.0100  -9.4667   0.0000   0.0985
 -18.000  -0.9596   0.04505   0.04016  -0.1100  0.5903  0.0100  -9.2105   0.0000   0.0974
 -17.500  -0.9436   0.04179   0.03684  -0.1101  0.5867  0.0101  -8.9456   0.0000   0.0964
 -17.000  -0.9218   0.03912   0.03410  -0.1100  0.5836  0.0101  -8.6503   0.0000   0.0946
 -16.500  -0.9020   0.03633   0.03123  -0.1099  0.5799  0.0102  -8.3685   0.0000   0.0931
 -16.000  -0.8762   0.03410   0.02894  -0.1096  0.5750  0.0102  -8.0572   0.0000   0.0906
 -15.500  -0.8527   0.03170   0.02647  -0.1093  0.5692  0.0103  -7.7619   0.0000   0.0884
 -15.000  -0.8243   0.02979   0.02451  -0.1088  0.5651  0.0103  -7.4448   0.0000   0.0852
 -14.500  -0.7982   0.02771   0.02240  -0.1082  0.5648  0.0103  -7.1433   0.0000   0.0823
 -14.000  -0.7682   0.02603   0.02068  -0.1075  0.5642  0.0104  -6.8270   0.0000   0.0785
 -13.500  -0.7400   0.02426   0.01888  -0.1066  0.5635  0.0104  -6.5239   0.0000   0.0749
 -13.000  -0.7086   0.02277   0.01736  -0.1058  0.5626  0.0105  -6.2112   0.0000   0.0702
 -12.500  -0.6777   0.02120   0.01577  -0.1049  0.5614  0.0105  -5.9063   0.0000   0.0651
 -12.000  -0.6433   0.01985   0.01440  -0.1042  0.5599  0.0105  -5.5928   0.0000   0.0583
 -11.500  -0.6082   0.01848   0.01300  -0.1036  0.5582  0.0106  -5.2830   0.0000   0.0502
 -11.000  -0.5705   0.01718   0.01167  -0.1033  0.5563  0.0106  -4.9701   0.0000   0.0395
 -10.500  -0.5284   0.01600   0.01046  -0.1036  0.5537  0.0107  -4.6492   0.0000   0.0244
 -10.000  -0.4778   0.01488   0.00931  -0.1053  0.5503  0.0107  -4.3084   0.0000  -0.0008
  -9.500  -0.4218   0.01384   0.00825  -0.1080  0.5473  0.0108  -3.9600   0.0000  -0.0378
  -9.000  -0.3789   0.01280   0.00719  -0.1080  0.5447  0.0108  -3.6613   0.0000  -0.0678
  -8.500  -0.3431   0.01176   0.00613  -0.1067  0.5426  0.0109  -3.3916   0.0000  -0.0945
  -8.000  -0.3179   0.01096   0.00532  -0.1025  0.5424  0.0109  -3.1565   0.0000  -0.1059
  -7.500  -0.2934   0.01042   0.00477  -0.0970  0.5421  0.0111  -2.9570   0.0000  -0.1142
  -7.000  -0.2754   0.01004   0.00437  -0.0898  0.5416  0.0116  -2.7844   0.0000  -0.1089
  -6.500  -0.2390   0.00967   0.00401  -0.0862  0.5404  0.0124  -2.5674   0.0000  -0.1451
  -6.000  -0.1979   0.00934   0.00370  -0.0834  0.5382  0.0134  -2.3359   0.0000  -0.2088
  -5.500  -0.1546   0.00904   0.00342  -0.0809  0.5357  0.0152  -2.1077   0.0000  -0.3165
  -5.000  -0.1129   0.00869   0.00311  -0.0781  0.5330  0.0248  -1.8860   0.0000  -0.4940
  -4.500  -0.0733   0.00828   0.00279  -0.0750  0.5284  0.0490  -1.6732   0.0000  -0.8441
  -4.000  -0.0323   0.00791   0.00253  -0.0721  0.5236  0.0794  -1.4626   0.0000  -2.1212
  -3.500   0.0065   0.00744   0.00225  -0.0687  0.5212  0.1290  -1.2640   0.0000  11.4690
  -3.000   0.0417   0.00683   0.00193  -0.0646  0.5207  0.2074  -1.0793   0.0000   1.8698
  -2.500   0.0712   0.00613   0.00159  -0.0593  0.5197  0.3136  -0.9121   0.0000   1.1146
  -2.000   0.0951   0.00522   0.00121  -0.0528  0.5180  0.4673  -0.8747   0.0000   0.8225
  -1.500   0.1494   0.00504   0.00118  -0.0524  0.5135  0.5202  -0.9253   0.0000   0.6066
  -1.000   0.2059   0.00507   0.00121  -0.0524  0.5052  0.5370  -0.9776   0.0000   0.5048
  -0.500   0.2631   0.00514   0.00124  -0.0525  0.4999  0.5394  -1.0306   0.0000   0.4467
   0.000   0.3206   0.00516   0.00127  -0.0528  0.4936  0.5496  -1.0869   0.0000   0.4096
   0.500   0.3778   0.00526   0.00132  -0.0530  0.4811  0.5521  -1.1437   0.0000   0.3837
   1.000   0.4343   0.00542   0.00139  -0.0532  0.4615  0.5540  -1.2098   0.0000   0.3646
   1.500   0.4884   0.00572   0.00155  -0.0529  0.4295  0.5556  -1.2754   0.0000   0.3495
   2.000   0.5421   0.00605   0.00173  -0.0527  0.3998  0.5575  -1.3414   0.0000   0.3373
   2.500   0.5966   0.00634   0.00192  -0.0526  0.3774  0.5589  -1.4121   0.0000   0.3275
   3.000   0.6535   0.00661   0.00210  -0.0530  0.3591  0.5595  -1.4856   0.0000   0.3198
   3.500   0.7119   0.00689   0.00230  -0.0539  0.3422  0.5600  -1.5610   0.0000   0.3136
   4.000   0.7718   0.00718   0.00252  -0.0551  0.3263  0.5603  -1.6383   0.0000   0.3086
   4.500   0.8349   0.00741   0.00271  -0.0570  0.3169  0.5606  -1.7191   0.0000   0.3049
   5.000   0.8987   0.00770   0.00294  -0.0592  0.3043  0.5609  -1.8086   0.0000   0.3018
   6.500   1.1022   0.00864   0.00372  -0.0688  0.2676  0.5668  -2.1135   0.0000   0.2963
   7.000   1.1564   0.00894   0.00400  -0.0691  0.2596  0.5692  -2.2050   0.0000   0.2928
   7.500   1.2070   0.00929   0.00432  -0.0687  0.2488  0.5715  -2.2935   0.0000   0.2893
   8.000   1.2562   0.00967   0.00467  -0.0682  0.2399  0.5734  -2.3815   0.0000   0.2858
   8.500   1.3044   0.01006   0.00504  -0.0675  0.2309  0.5752  -2.4820   0.0000   0.2824
   9.000   1.3478   0.01054   0.00550  -0.0660  0.2223  0.5770  -2.5844   0.0000   0.2788
   9.500   1.3923   0.01101   0.00596  -0.0648  0.2140  0.5785  -2.6892   0.0000   0.2755
  10.000   1.4311   0.01164   0.00655  -0.0627  0.2063  0.5798  -2.7880   0.0000   0.2719
  10.500   1.4703   0.01227   0.00719  -0.0609  0.1986  0.5810  -2.8880   0.0000   0.2686
  11.000   1.5065   0.01304   0.00795  -0.0588  0.1926  0.5819  -2.9857   0.0000   0.2652
  11.500   1.5378   0.01405   0.00895  -0.0563  0.1844  0.5825  -3.0814   0.0000   0.2618
  12.000   1.5733   0.01500   0.00993  -0.0546  0.1809  0.5829  -3.1848   0.0000   0.2589
  12.500   1.5967   0.01669   0.01162  -0.0520  0.1725  0.5853  -3.2769   0.0000   0.2557
  13.000   1.6249   0.01846   0.01343  -0.0507  0.1665  0.5897  -3.3869   0.0000   0.2532
  13.500   1.6399   0.02127   0.01624  -0.0487  0.1561  0.5940  -3.4770   0.0000   0.2505
  14.000   1.6604   0.02380   0.01881  -0.0474  0.1518  0.5976  -3.5762   0.0000   0.2481
  14.500   1.6741   0.02686   0.02190  -0.0458  0.1464  0.6004  -3.6687   0.0000   0.2457
  15.000   1.6912   0.02986   0.02497  -0.0448  0.1423  0.6028  -3.7720   0.0000   0.2436
  15.500   1.7072   0.03291   0.02807  -0.0437  0.1390  0.6045  -3.8771   0.0000   0.2415
  16.000   1.7099   0.03705   0.03222  -0.0422  0.1312  0.6056  -3.9579   0.0000   0.2392
  16.500   1.7219   0.04055   0.03578  -0.0413  0.1272  0.6090  -4.0571   0.0000   0.2373
  17.000   1.7221   0.04513   0.04038  -0.0402  0.1194  0.6161  -4.1317   0.0000   0.2352
  17.500   1.7364   0.04849   0.04379  -0.0396  0.1149  0.6219  -4.2356   0.0000   0.2334
  18.000   1.7366   0.05324   0.04856  -0.0389  0.1081  0.6263  -4.3093   0.0000   0.2316
  18.500   1.7441   0.05744   0.05282  -0.0385  0.1047  0.6294  -4.3982   0.0000   0.2299
  19.000   1.7506   0.06172   0.05714  -0.0383  0.0994  0.6409  -4.4843   0.0000   0.2283
  19.500   1.7560   0.06632   0.06183  -0.0383  0.0961  0.6497  -4.5675   0.0000   0.2269
  20.000   1.7533   0.07176   0.06731  -0.0384  0.0897  0.6609  -4.6346   0.0000   0.2255
  20.500   1.7599   0.07633   0.07197  -0.0388  0.0863  0.6747  -4.7243   0.0000   0.2242
  21.000   1.7500   0.08283   0.07855  -0.0394  0.0805  0.6911  -4.7729   0.0000   0.2232
  21.500   1.7473   0.08871   0.08454  -0.0403  0.0775  0.7136  -4.8662   0.0000   0.2223
  22.000   1.7341   0.09587   0.09182  -0.0416  0.0725  0.7443  -4.9802   0.0000   0.2216
  22.500   1.7287   0.10245   0.09862  -0.0435  0.0695  0.8070  -5.1205   0.0000   0.2213
  23.000   1.6881   0.10843   0.10504  -0.0385  0.0663  0.9963  -5.1433   0.0000   0.2173
  23.500   1.7084   0.11815   0.11484  -0.0496  0.0622  1.0000  -5.3583   0.0000   0.2219
  24.000   1.6877   0.12666   0.12344  -0.0524  0.0586  1.0000  -5.4347   0.0000   0.2222
  24.500   1.6864   0.13258   0.12943  -0.0548  0.0568  1.0000  -5.5870   0.0000   0.2221
  25.000   1.6684   0.14080   0.13773  -0.0583  0.0539  1.0000  -5.6672   0.0000   0.2228
  25.500   1.6547   0.14855   0.14556  -0.0620  0.0513  1.0000  -5.7616   0.0000   0.2236
  26.000   1.6382   0.15678   0.15387  -0.0662  0.0485  1.0000  -5.8387   0.0000   0.2249
  26.500   1.6235   0.16480   0.16196  -0.0708  0.0458  1.0000  -5.9187   0.0000   0.2262
  27.000   1.6073   0.17301   0.17025  -0.0757  0.0429  1.0000  -5.9868   0.0000   0.2280
  27.500   1.6009   0.17977   0.17704  -0.0802  0.0392  1.0000  -6.0998   0.0000   0.2291
  28.000   1.5825   0.18851   0.18583  -0.0860  0.0351  1.0000  -6.1516   0.0000   0.2315
  28.500   1.5583   0.19829   0.19565  -0.0928  0.0297  1.0000  -6.1640   0.0000   0.2348
  29.000   1.5335   0.20834   0.20574  -0.1000  0.0247  1.0000  -6.1613   0.0000   0.2386
  29.500   1.5154   0.21736   0.21480  -0.1069  0.0211  1.0000  -6.1874   0.0000   0.2419
  30.000   1.4981   0.22621   0.22371  -0.1139  0.0175  1.0000  -6.2093   0.0000   0.2455
  30.500   1.4774   0.23581   0.23334  -0.1216  0.0133  1.0000  -6.1988   0.0000   0.2498
  31.000   1.4545   0.24608   0.24364  -0.1298  0.0089  1.0000  -6.1585   0.0000   0.2548
  31.500   1.4421   0.25440   0.25202  -0.1370  0.0073  1.0000  -6.1806   0.0000   0.2586
  32.000   1.4418   0.26024   0.25790  -0.1427  0.0066  1.0000  -6.2873   0.0000   0.2604
  32.500   1.4352   0.26736   0.26508  -0.1492  0.0060  1.0000  -6.3399   0.0000   0.2634
  33.000   1.4314   0.27381   0.27162  -0.1555  0.0058  1.0000  -6.4114   0.0000   0.2659
  33.500   1.4332   0.27899   0.27684  -0.1610  0.0055  1.0000  -6.5274   0.0000   0.2674
  34.000   1.4278   0.28570   0.28361  -0.1676  0.0052  1.0000  -6.5770   0.0000   0.2702
  34.500   1.4216   0.29260   0.29059  -0.1743  0.0048  1.0000  -6.6106   0.0000   0.2732
  35.000   1.4236   0.29750   0.29553  -0.1799  0.0045  0.9999  -6.7219   0.0000   0.2746
  35.500   1.4213   0.30331   0.30141  -0.1861  0.0044  0.9999  -6.7979   0.0000   0.2768
  36.000   1.4245   0.30773   0.30587  -0.1916  0.0043  0.9999  -6.9290   0.0000   0.2778
  36.500   1.4214   0.31353   0.31173  -0.1979  0.0041  0.9999  -6.9899   0.0000   0.2801
  37.000   1.4192   0.31904   0.31729  -0.2042  0.0039  0.9999  -7.0574   0.0000   0.2822
  37.500   1.4183   0.32416   0.32245  -0.2102  0.0036  0.9999  -7.1387   0.0000   0.2840
  38.000   1.4128   0.33039   0.32874  -0.2170  0.0033  0.9999  -7.1676   0.0000   0.2868
  38.500   1.4166   0.33404   0.33243  -0.2223  0.0033  0.9999  -7.3255   0.0000   0.2873
  39.000   1.4151   0.33895   0.33739  -0.2284  0.0032  0.9998  -7.4130   0.0000   0.2890
  39.500   1.4178   0.34258   0.34105  -0.2338  0.0030  0.9998  -7.5604   0.0000   0.2896
  40.000   1.4153   0.34751   0.34604  -0.2400  0.0029  0.9998  -7.6314   0.0000   0.2914
  40.500   1.4166   0.35127   0.34981  -0.2456  0.0028  0.9998  -7.7602   0.0000   0.2922
  41.000   1.4128   0.35634   0.35493  -0.2520  0.0026  0.9998  -7.8062   0.0000   0.2942
  41.500   1.4124   0.36033   0.35894  -0.2578  0.0023  0.9998  -7.9051   0.0000   0.2952
  42.000   1.4107   0.36429   0.36294  -0.2637  0.0023  0.9998  -7.9814   0.0000   0.2965
  42.500   1.4128   0.36669   0.36538  -0.2690  0.0022  0.9997  -8.1278   0.0000   0.2966
  43.000   1.4141   0.36891   0.36763  -0.2745  0.0021  0.9997  -8.2637   0.0000   0.2969
  43.500   1.4125   0.37153   0.37029  -0.2804  0.0020  0.9997  -8.3433   0.0000   0.2979
  44.000   1.4134   0.37339   0.37217  -0.2858  0.0019  0.9997  -8.4771   0.0000   0.2980
  44.500   1.4106   0.37599   0.37480  -0.2918  0.0018  0.9997  -8.5352   0.0000   0.2991
  45.000   1.4094   0.37801   0.37684  -0.2974  0.0017  0.9997  -8.6311   0.0000   0.2996
  45.500   1.4064   0.38045   0.37930  -0.3033  0.0014  0.9996  -8.6917   0.0000   0.3005


