xflr5 v6.33

 Calculated polar for: Bell A821201 v4

 1 1 Reynolds number fixed          Mach number fixed         

 xtrf =   1.000 (top)        1.000 (bottom)
 Mach =   0.000     Re =     3.900 e 6     Ncrit =   9.000

  alpha     CL        CD       CDp       Cm    Top Xtr Bot Xtr   Cpmin    Chinge    XCp    
 ------- -------- --------- --------- -------- ------- ------- -------- --------- ---------
 -26.500  -0.7174   0.20239   0.20093  -0.0237  0.9943  0.0094  -7.6468   0.0000   0.1459
 -26.000  -0.7551   0.18557   0.18393  -0.0351  0.9938  0.0096  -8.3920   0.0000   0.1353
 -25.500  -0.7734   0.17258   0.17082  -0.0449  0.9929  0.0097  -8.7619   0.0000   0.1258
 -25.000  -0.7956   0.16156   0.15968  -0.0513  0.9909  0.0098  -9.0410   0.0000   0.1219
 -24.500  -0.8244   0.15083   0.14882  -0.0563  0.9903  0.0098  -9.3178   0.0000   0.1207
 -24.000  -0.8534   0.13921   0.13706  -0.0627  0.9894  0.0099  -9.5836   0.0000   0.1180
 -23.500  -0.8798   0.12774   0.12545  -0.0693  0.9880  0.0099  -9.7943   0.0000   0.1150
 -23.000  -0.9045   0.11668   0.11423  -0.0757  0.9860  0.0100  -9.9578   0.0000   0.1122
 -22.500  -0.9296   0.10567   0.10307  -0.0819  0.9827  0.0100  -10.0966   0.0000   0.1099
 -22.000  -0.9370   0.09439   0.09159  -0.0914  0.9572  0.0100  -10.1200   0.0000   0.1020
 -21.500  -0.9457   0.08634   0.08274  -0.0961  0.7873  0.0101  -10.0844   0.0000   0.0997
 -21.000  -0.9578   0.07851   0.07473  -0.0997  0.7700  0.0101  -10.0502   0.0000   0.0990
 -20.500  -0.9623   0.07188   0.06792  -0.1025  0.7480  0.0101  -9.9480   0.0000   0.0982
 -20.000  -0.9621   0.06584   0.06149  -0.1053  0.6558  0.0102  -9.8099   0.0000   0.0967
 -19.500  -0.9591   0.06046   0.05593  -0.1072  0.6322  0.0102  -9.6425   0.0000   0.0958
 -19.000  -0.9519   0.05574   0.05107  -0.1086  0.6174  0.0103  -9.4432   0.0000   0.0948
 -18.500  -0.9416   0.05157   0.04679  -0.1095  0.6074  0.0103  -9.2213   0.0000   0.0939
 -18.000  -0.9269   0.04792   0.04304  -0.1100  0.5995  0.0103  -8.9723   0.0000   0.0924
 -17.500  -0.9113   0.04448   0.03949  -0.1105  0.5892  0.0104  -8.7178   0.0000   0.0910
 -17.000  -0.8950   0.04122   0.03616  -0.1106  0.5866  0.0104  -8.4591   0.0000   0.0897
 -16.500  -0.8729   0.03858   0.03346  -0.1104  0.5839  0.0105  -8.1703   0.0000   0.0876
 -16.000  -0.8525   0.03585   0.03066  -0.1103  0.5805  0.0105  -7.8927   0.0000   0.0857
 -15.500  -0.8267   0.03360   0.02835  -0.1100  0.5762  0.0105  -7.5905   0.0000   0.0827
 -15.000  -0.8025   0.03127   0.02595  -0.1096  0.5710  0.0106  -7.2994   0.0000   0.0798
 -14.500  -0.7739   0.02936   0.02398  -0.1092  0.5669  0.0106  -6.9906   0.0000   0.0759
 -14.000  -0.7470   0.02733   0.02191  -0.1086  0.5650  0.0106  -6.6945   0.0000   0.0723
 -13.500  -0.7169   0.02567   0.02021  -0.1079  0.5645  0.0107  -6.3867   0.0000   0.0677
 -13.000  -0.6884   0.02393   0.01844  -0.1071  0.5639  0.0107  -6.0915   0.0000   0.0632
 -12.500  -0.6565   0.02245   0.01694  -0.1062  0.5631  0.0107  -5.7861   0.0000   0.0573
 -12.000  -0.6245   0.02093   0.01539  -0.1055  0.5621  0.0108  -5.4863   0.0000   0.0505
 -11.500  -0.5900   0.01955   0.01399  -0.1048  0.5608  0.0108  -5.1823   0.0000   0.0420
 -11.000  -0.5532   0.01823   0.01265  -0.1044  0.5593  0.0108  -4.8765   0.0000   0.0310
 -10.500  -0.5135   0.01695   0.01135  -0.1044  0.5575  0.0109  -4.5677   0.0000   0.0162
 -10.000  -0.4671   0.01576   0.01013  -0.1055  0.5553  0.0109  -4.2445   0.0000  -0.0070
  -9.500  -0.4113   0.01467   0.00901  -0.1082  0.5527  0.0109  -3.9005   0.0000  -0.0459
  -9.000  -0.3711   0.01346   0.00775  -0.1081  0.5501  0.0110  -3.6219   0.0000  -0.0749
  -8.500  -0.3361   0.01228   0.00654  -0.1069  0.5474  0.0112  -3.3644   0.0000  -0.1024
  -8.000  -0.3137   0.01128   0.00550  -0.1029  0.5450  0.0116  -3.1559   0.0000  -0.1118
  -7.500  -0.2891   0.01074   0.00495  -0.0976  0.5427  0.0120  -2.9572   0.0000  -0.1214
  -7.000  -0.2726   0.01036   0.00457  -0.0901  0.5423  0.0125  -2.7778   0.0000  -0.1137
  -6.500  -0.2369   0.00999   0.00421  -0.0864  0.5418  0.0131  -2.5545   0.0000  -0.1493
  -6.000  -0.1961   0.00966   0.00389  -0.0835  0.5404  0.0137  -2.3234   0.0000  -0.2138
  -5.500  -0.1546   0.00931   0.00356  -0.0808  0.5381  0.0165  -2.1043   0.0000  -0.3155
  -5.000  -0.1150   0.00889   0.00323  -0.0776  0.5363  0.0314  -1.8885   0.0000  -0.4765
  -4.500  -0.0760   0.00843   0.00289  -0.0744  0.5333  0.0598  -1.6774   0.0000  -0.7959
  -4.000  -0.0362   0.00801   0.00258  -0.0712  0.5291  0.0951  -1.4694   0.0000  -1.8424
  -3.500   0.0017   0.00753   0.00229  -0.0677  0.5250  0.1490  -1.2724   0.0000  42.9005
  -3.000   0.0347   0.00693   0.00198  -0.0632  0.5214  0.2321  -1.0919   0.0000   2.1586
  -2.000   0.0904   0.00528   0.00128  -0.0520  0.5197  0.5043  -0.8718   0.0000   0.8430
  -1.500   0.1464   0.00521   0.00129  -0.0518  0.5173  0.5310  -0.9234   0.0000   0.6099
  -1.000   0.2031   0.00526   0.00131  -0.0518  0.5117  0.5389  -0.9758   0.0000   0.5053
  -0.500   0.2590   0.00533   0.00132  -0.0517  0.5027  0.5443  -1.0280   0.0000   0.4466
   0.000   0.3156   0.00535   0.00138  -0.0517  0.4987  0.5532  -1.0836   0.0000   0.4087
   0.500   0.3727   0.00542   0.00140  -0.0519  0.4903  0.5547  -1.1404   0.0000   0.3825
   1.000   0.4293   0.00553   0.00145  -0.0520  0.4777  0.5563  -1.2062   0.0000   0.3632
   1.500   0.4835   0.00576   0.00156  -0.0517  0.4516  0.5578  -1.2721   0.0000   0.3480
   2.000   0.5352   0.00610   0.00175  -0.0510  0.4191  0.5593  -1.3365   0.0000   0.3354
   2.500   0.5871   0.00645   0.00196  -0.0504  0.3911  0.5600  -1.4047   0.0000   0.3251
   3.000   0.6416   0.00674   0.00215  -0.0504  0.3708  0.5604  -1.4762   0.0000   0.3170
   3.500   0.6977   0.00701   0.00235  -0.0507  0.3536  0.5607  -1.5496   0.0000   0.3105
   4.000   0.7556   0.00728   0.00255  -0.0515  0.3386  0.5610  -1.6252   0.0000   0.3052
   4.500   0.8207   0.00756   0.00277  -0.0540  0.3239  0.5630  -1.7072   0.0000   0.3022
   5.000   0.8888   0.00785   0.00300  -0.0571  0.3121  0.5655  -1.7995   0.0000   0.3001
   5.500   0.9679   0.00813   0.00325  -0.0627  0.2998  0.5680  -1.9098   0.0000   0.3000
   6.000   1.0349   0.00849   0.00354  -0.0657  0.2849  0.5701  -2.0106   0.0000   0.2981
   6.500   1.0926   0.00882   0.00383  -0.0668  0.2750  0.5719  -2.1041   0.0000   0.2950
   7.000   1.1471   0.00912   0.00412  -0.0672  0.2661  0.5735  -2.1955   0.0000   0.2916
   7.500   1.1968   0.00953   0.00448  -0.0667  0.2548  0.5751  -2.2830   0.0000   0.2880
   8.000   1.2481   0.00985   0.00480  -0.0665  0.2470  0.5766  -2.3729   0.0000   0.2848
   8.500   1.2932   0.01034   0.00524  -0.0653  0.2365  0.5779  -2.4688   0.0000   0.2812
   9.000   1.3397   0.01074   0.00564  -0.0644  0.2292  0.5792  -2.5748   0.0000   0.2779
   9.500   1.3806   0.01135   0.00620  -0.0626  0.2192  0.5804  -2.6749   0.0000   0.2743
  10.000   1.4227   0.01188   0.00673  -0.0612  0.2126  0.5814  -2.7776   0.0000   0.2710
  10.500   1.4573   0.01269   0.00751  -0.0587  0.2036  0.5822  -2.8716   0.0000   0.2674
  11.000   1.4948   0.01344   0.00827  -0.0569  0.1975  0.5828  -2.9703   0.0000   0.2642
  11.500   1.5273   0.01446   0.00930  -0.0547  0.1913  0.5837  -3.0673   0.0000   0.2609
  12.000   1.5574   0.01573   0.01059  -0.0526  0.1840  0.5874  -3.1620   0.0000   0.2579
  12.500   1.5895   0.01709   0.01199  -0.0512  0.1796  0.5917  -3.2660   0.0000   0.2553
  13.000   1.6088   0.01951   0.01442  -0.0493  0.1704  0.5953  -3.3606   0.0000   0.2525
  13.500   1.6338   0.02168   0.01664  -0.0481  0.1651  0.5984  -3.4669   0.0000   0.2502
  14.000   1.6452   0.02483   0.01979  -0.0462  0.1557  0.6010  -3.5505   0.0000   0.2476
  14.500   1.6610   0.02784   0.02285  -0.0449  0.1514  0.6031  -3.6453   0.0000   0.2453
  15.000   1.6709   0.03137   0.02640  -0.0434  0.1458  0.6046  -3.7342   0.0000   0.2430
  15.500   1.6864   0.03447   0.02956  -0.0424  0.1420  0.6057  -3.8362   0.0000   0.2409
  16.000   1.7009   0.03772   0.03287  -0.0415  0.1380  0.6096  -3.9399   0.0000   0.2389
  16.500   1.7037   0.04200   0.03719  -0.0403  0.1303  0.6164  -4.0197   0.0000   0.2368
  17.000   1.7144   0.04575   0.04101  -0.0397  0.1264  0.6218  -4.1156   0.0000   0.2350
  17.500   1.7154   0.05035   0.04563  -0.0388  0.1188  0.6261  -4.1910   0.0000   0.2331
  18.000   1.7279   0.05395   0.04926  -0.0384  0.1142  0.6293  -4.2906   0.0000   0.2314
  18.500   1.7284   0.05887   0.05423  -0.0380  0.1078  0.6395  -4.3635   0.0000   0.2297
  19.000   1.7415   0.06255   0.05797  -0.0379  0.1042  0.6487  -4.4638   0.0000   0.2282
  19.500   1.7390   0.06794   0.06341  -0.0378  0.0987  0.6580  -4.5284   0.0000   0.2267
  20.000   1.7442   0.07270   0.06828  -0.0382  0.0954  0.6727  -4.6122   0.0000   0.2254
  20.500   1.7422   0.07818   0.07381  -0.0385  0.0890  0.6884  -4.6807   0.0000   0.2242
  21.000   1.7436   0.08353   0.07928  -0.0393  0.0859  0.7099  -4.7563   0.0000   0.2232
  21.500   1.7323   0.09041   0.08627  -0.0404  0.0804  0.7400  -4.8145   0.0000   0.2224
  22.000   1.7284   0.09670   0.09277  -0.0419  0.0774  0.7962  -4.9582   0.0000   0.2218
  22.500   1.6909   0.10239   0.09892  -0.0368  0.0741  0.9961  -4.9941   0.0000   0.2178
  23.000   1.7120   0.11194   0.10855  -0.0475  0.0693  1.0000  -5.2118   0.0000   0.2222
  23.500   1.6919   0.12027   0.11695  -0.0499  0.0650  1.0000  -5.2929   0.0000   0.2223
  24.000   1.6790   0.12780   0.12458  -0.0526  0.0624  1.0000  -5.3987   0.0000   0.2225
  24.500   1.6594   0.13625   0.13310  -0.0559  0.0591  1.0000  -5.4739   0.0000   0.2232
  25.000   1.6521   0.14308   0.14002  -0.0590  0.0572  1.0000  -5.5963   0.0000   0.2236
  25.500   1.6430   0.15018   0.14719  -0.0625  0.0543  1.0000  -5.7088   0.0000   0.2242
  26.000   1.6292   0.15805   0.15514  -0.0667  0.0515  1.0000  -5.7963   0.0000   0.2253
  26.500   1.6151   0.16598   0.16314  -0.0712  0.0489  1.0000  -5.8783   0.0000   0.2267
  27.000   1.5999   0.17409   0.17133  -0.0761  0.0460  1.0000  -5.9498   0.0000   0.2284
  27.500   1.5864   0.18202   0.17933  -0.0813  0.0429  1.0000  -6.0242   0.0000   0.2303
  28.000   1.5801   0.18883   0.18617  -0.0861  0.0392  1.0000  -6.1376   0.0000   0.2317
  28.500   1.5634   0.19740   0.19479  -0.0922  0.0354  1.0000  -6.1907   0.0000   0.2342
  29.000   1.5414   0.20694   0.20437  -0.0991  0.0301  1.0000  -6.2059   0.0000   0.2376
  29.500   1.5173   0.21695   0.21440  -0.1066  0.0249  1.0000  -6.1980   0.0000   0.2417
  30.000   1.4997   0.22584   0.22335  -0.1136  0.0211  1.0000  -6.2186   0.0000   0.2452
  30.500   1.4832   0.23465   0.23220  -0.1208  0.0175  1.0000  -6.2365   0.0000   0.2489
  31.000   1.4624   0.24444   0.24202  -0.1288  0.0131  1.0000  -6.2133   0.0000   0.2536
  31.500   1.4413   0.25448   0.25209  -0.1370  0.0089  1.0000  -6.1734   0.0000   0.2587
  32.000   1.4314   0.26236   0.26002  -0.1440  0.0074  1.0000  -6.2039   0.0000   0.2622
  32.500   1.4309   0.26825   0.26595  -0.1498  0.0067  1.0000  -6.3031   0.0000   0.2641
  33.000   1.4233   0.27560   0.27337  -0.1567  0.0060  1.0000  -6.3389   0.0000   0.2674
  33.500   1.4202   0.28195   0.27980  -0.1630  0.0058  1.0000  -6.4077   0.0000   0.2699
  34.000   1.4224   0.28703   0.28492  -0.1686  0.0055  1.0000  -6.5215   0.0000   0.2714
  34.500   1.4175   0.29368   0.29164  -0.1752  0.0052  1.0000  -6.5656   0.0000   0.2742
  35.000   1.4138   0.29997   0.29799  -0.1817  0.0049  1.0000  -6.6174   0.0000   0.2768
  35.500   1.4125   0.30560   0.30367  -0.1878  0.0046  1.0000  -6.6965   0.0000   0.2789
  36.000   1.4111   0.31114   0.30928  -0.1939  0.0045  1.0000  -6.7744   0.0000   0.2809
  36.500   1.4143   0.31543   0.31361  -0.1993  0.0043  1.0000  -6.9016   0.0000   0.2819
  37.000   1.4119   0.32105   0.31930  -0.2056  0.0041  0.9999  -6.9615   0.0000   0.2841
  37.500   1.4134   0.32555   0.32383  -0.2113  0.0040  0.9999  -7.0713   0.0000   0.2853
  38.000   1.4100   0.33123   0.32956  -0.2177  0.0037  0.9999  -7.1244   0.0000   0.2876
  38.500   1.4054   0.33719   0.33556  -0.2244  0.0034  0.9999  -7.1637   0.0000   0.2902
  39.000   1.4084   0.34091   0.33933  -0.2298  0.0033  0.9999  -7.3085   0.0000   0.2909
  39.500   1.4093   0.34510   0.34356  -0.2355  0.0032  0.9999  -7.4261   0.0000   0.2919
  40.000   1.4103   0.34904   0.34754  -0.2411  0.0031  0.9999  -7.5443   0.0000   0.2929
  40.500   1.4121   0.35270   0.35123  -0.2466  0.0029  0.9999  -7.6779   0.0000   0.2935
  41.000   1.4101   0.35721   0.35579  -0.2527  0.0028  0.9999  -7.7505   0.0000   0.2951
  41.500   1.4106   0.36092   0.35951  -0.2583  0.0026  0.9998  -7.8653   0.0000   0.2959
  42.000   1.4074   0.36527   0.36390  -0.2646  0.0024  0.9998  -7.9112   0.0000   0.2976
  42.500   1.4091   0.36772   0.36637  -0.2700  0.0023  0.9998  -8.0459   0.0000   0.2979
  43.000   1.4093   0.37022   0.36892  -0.2756  0.0022  0.9998  -8.1570   0.0000   0.2985
  43.500   1.4095   0.37242   0.37116  -0.2812  0.0021  0.9998  -8.2698   0.0000   0.2989
  44.000   1.4106   0.37418   0.37294  -0.2866  0.0020  0.9998  -8.4050   0.0000   0.2990
  44.500   1.4086   0.37659   0.37538  -0.2924  0.0019  0.9997  -8.4785   0.0000   0.2999
  45.000   1.4084   0.37840   0.37722  -0.2979  0.0018  0.9997  -8.5932   0.0000   0.3001
  45.500   1.4052   0.38087   0.37971  -0.3038  0.0017  0.9997  -8.6518   0.0000   0.3011


