xflr5 v6.33

 Calculated polar for: Bell A821201 v4

 1 1 Reynolds number fixed          Mach number fixed         

 xtrf =   1.000 (top)        1.000 (bottom)
 Mach =   0.000     Re =     2.100 e 6     Ncrit =   9.000

  alpha     CL        CD       CDp       Cm    Top Xtr Bot Xtr   Cpmin    Chinge    XCp    
 ------- -------- --------- --------- -------- ------- ------- -------- --------- ---------
 -23.500  -0.7505   0.15824   0.15605  -0.0448  0.9957  0.0111  -7.9501   0.0000   0.1301
 -23.000  -0.7857   0.14277   0.14035  -0.0552  0.9950  0.0112  -8.4085   0.0000   0.1221
 -22.500  -0.8069   0.12983   0.12722  -0.0644  0.9938  0.0113  -8.6529   0.0000   0.1147
 -22.000  -0.8217   0.11854   0.11577  -0.0722  0.9920  0.0114  -8.7859   0.0000   0.1085
 -21.500  -0.8447   0.10880   0.10587  -0.0760  0.9898  0.0114  -8.8994   0.0000   0.1085
 -21.000  -0.8595   0.09933   0.09626  -0.0810  0.9876  0.0115  -8.9475   0.0000   0.1061
 -20.500  -0.8696   0.09041   0.08719  -0.0859  0.9825  0.0116  -8.9461   0.0000   0.1033
 -20.000  -0.8589   0.08100   0.07761  -0.0950  0.9489  0.0116  -8.8375   0.0000   0.0924
 -19.500  -0.8417   0.07348   0.06924  -0.1029  0.7804  0.0117  -8.6675   0.0000   0.0816
 -19.000  -0.8408   0.06754   0.06310  -0.1053  0.7524  0.0118  -8.5423   0.0000   0.0802
 -18.500  -0.8347   0.06225   0.05740  -0.1077  0.6645  0.0118  -8.3814   0.0000   0.0778
 -18.000  -0.8265   0.05740   0.05235  -0.1094  0.6379  0.0119  -8.2009   0.0000   0.0757
 -17.500  -0.8163   0.05305   0.04788  -0.1105  0.6253  0.0120  -8.0033   0.0000   0.0738
 -17.000  -0.8031   0.04911   0.04380  -0.1114  0.6124  0.0121  -7.7870   0.0000   0.0716
 -16.500  -0.7886   0.04549   0.04009  -0.1118  0.6076  0.0121  -7.5618   0.0000   0.0695
 -16.000  -0.7707   0.04231   0.03681  -0.1121  0.6025  0.0122  -7.3188   0.0000   0.0668
 -15.500  -0.7500   0.03943   0.03384  -0.1122  0.5968  0.0123  -7.0636   0.0000   0.0635
 -15.000  -0.7290   0.03665   0.03096  -0.1122  0.5900  0.0124  -6.8091   0.0000   0.0599
 -14.500  -0.7043   0.03430   0.02855  -0.1119  0.5875  0.0124  -6.5378   0.0000   0.0556
 -14.000  -0.6808   0.03191   0.02610  -0.1115  0.5860  0.0125  -6.2753   0.0000   0.0513
 -13.500  -0.6531   0.02990   0.02405  -0.1110  0.5842  0.0126  -5.9974   0.0000   0.0456
 -13.000  -0.6261   0.02786   0.02195  -0.1105  0.5821  0.0127  -5.7267   0.0000   0.0396
 -12.500  -0.5960   0.02613   0.02017  -0.1099  0.5798  0.0128  -5.4465   0.0000   0.0319
 -12.000  -0.5658   0.02439   0.01838  -0.1095  0.5774  0.0129  -5.1713   0.0000   0.0232
 -11.500  -0.5316   0.02288   0.01681  -0.1092  0.5745  0.0130  -4.8854   0.0000   0.0112
 -11.000  -0.4943   0.02136   0.01524  -0.1095  0.5712  0.0131  -4.5957   0.0000  -0.0052
 -10.500  -0.4484   0.02002   0.01385  -0.1111  0.5679  0.0132  -4.2837   0.0000  -0.0323
 -10.000  -0.4023   0.01871   0.01251  -0.1125  0.5651  0.0134  -3.9789   0.0000  -0.0656
  -9.500  -0.3660   0.01745   0.01123  -0.1118  0.5645  0.0135  -3.7090   0.0000  -0.0924
  -9.000  -0.3303   0.01627   0.01003  -0.1108  0.5638  0.0137  -3.4463   0.0000  -0.1232
  -8.500  -0.2965   0.01512   0.00887  -0.1093  0.5630  0.0139  -3.1943   0.0000  -0.1576
  -8.000  -0.2701   0.01379   0.00751  -0.1067  0.5619  0.0145  -2.9925   0.0000  -0.1843
  -7.500  -0.2519   0.01253   0.00622  -0.1025  0.5607  0.0152  -2.8245   0.0000  -0.1958
  -7.000  -0.2314   0.01186   0.00554  -0.0968  0.5594  0.0161  -2.6451   0.0000  -0.2071
  -6.500  -0.2163   0.01145   0.00512  -0.0893  0.5577  0.0169  -2.4795   0.0000  -0.2007
  -5.500  -0.1567   0.01044   0.00422  -0.0798  0.5531  0.0403  -2.0992   0.0000  -0.3021
  -5.000  -0.1250   0.00989   0.00379  -0.0754  0.5477  0.0737  -1.9016   0.0000  -0.4007
  -4.500  -0.0903   0.00936   0.00345  -0.0715  0.5426  0.1203  -1.7001   0.0000  -0.5998
  -4.000  -0.0607   0.00855   0.00297  -0.0666  0.5419  0.2017  -1.5142   0.0000  -0.9235
  -3.500  -0.0328   0.00765   0.00248  -0.0613  0.5406  0.3096  -1.3367   0.0000  -1.7374
  -3.000  -0.0112   0.00651   0.00192  -0.0547  0.5385  0.4717  -1.1765   0.0000  -4.9101
  -2.500   0.0378   0.00633   0.00192  -0.0531  0.5360  0.5273  -0.9680   0.0000   1.7188
  -2.000   0.0920   0.00639   0.00195  -0.0525  0.5335  0.5396  -0.8719   0.0000   0.8379
  -1.500   0.1426   0.00640   0.00198  -0.0511  0.5304  0.5514  -0.9202   0.0000   0.6145
  -1.000   0.1932   0.00654   0.00209  -0.0497  0.5261  0.5586  -0.9690   0.0000   0.5077
  -0.500   0.2457   0.00671   0.00221  -0.0488  0.5210  0.5609  -1.0190   0.0000   0.4456
   0.000   0.3005   0.00658   0.00208  -0.0485  0.5180  0.5642  -1.0732   0.0000   0.4061
   0.500   0.3554   0.00653   0.00202  -0.0481  0.5121  0.5675  -1.1285   0.0000   0.3787
   1.000   0.4075   0.00658   0.00203  -0.0473  0.5045  0.5708  -1.1902   0.0000   0.3580
   1.500   0.4625   0.00662   0.00206  -0.0471  0.4982  0.5724  -1.2564   0.0000   0.3426
   2.000   0.5165   0.00670   0.00210  -0.0467  0.4870  0.5739  -1.3227   0.0000   0.3303
   2.500   0.5691   0.00685   0.00217  -0.0461  0.4689  0.5752  -1.3897   0.0000   0.3201
   3.000   0.6185   0.00714   0.00232  -0.0450  0.4406  0.5764  -1.4571   0.0000   0.3110
   3.500   0.6664   0.00752   0.00256  -0.0437  0.4103  0.5776  -1.5237   0.0000   0.3031
   4.000   0.7150   0.00791   0.00284  -0.0426  0.3866  0.5787  -1.5914   0.0000   0.2963
   4.500   0.7657   0.00827   0.00312  -0.0420  0.3673  0.5798  -1.6612   0.0000   0.2909
   5.000   0.8182   0.00863   0.00341  -0.0418  0.3511  0.5808  -1.7352   0.0000   0.2865
   5.500   0.8737   0.00896   0.00369  -0.0423  0.3378  0.5816  -1.8230   0.0000   0.2832
   6.000   0.9301   0.00936   0.00404  -0.0432  0.3237  0.5822  -1.9123   0.0000   0.2805
   6.500   0.9885   0.00976   0.00439  -0.0446  0.3118  0.5827  -2.0047   0.0000   0.2784
   7.000   1.0489   0.01016   0.00476  -0.0464  0.2999  0.5831  -2.0998   0.0000   0.2769
   7.500   1.1268   0.01065   0.00520  -0.0523  0.2856  0.5857  -2.2124   0.0000   0.2784
   8.000   1.1889   0.01108   0.00561  -0.0547  0.2761  0.5884  -2.3114   0.0000   0.2773
   8.500   1.2409   0.01158   0.00611  -0.0552  0.2654  0.5911  -2.4075   0.0000   0.2749
   9.000   1.2860   0.01221   0.00671  -0.0544  0.2553  0.5935  -2.5103   0.0000   0.2719
   9.500   1.3304   0.01280   0.00732  -0.0536  0.2476  0.5957  -2.6134   0.0000   0.2690
  10.000   1.3697   0.01358   0.00811  -0.0521  0.2390  0.5980  -2.7111   0.0000   0.2659
  10.500   1.4058   0.01451   0.00905  -0.0504  0.2306  0.6001  -2.8054   0.0000   0.2627
  11.000   1.4378   0.01571   0.01026  -0.0485  0.2225  0.6018  -2.8948   0.0000   0.2596
  11.500   1.4664   0.01724   0.01180  -0.0466  0.2144  0.6034  -2.9832   0.0000   0.2566
  12.000   1.4924   0.01923   0.01382  -0.0452  0.2071  0.6047  -3.0688   0.0000   0.2540
  12.500   1.5138   0.02168   0.01629  -0.0438  0.1992  0.6057  -3.1507   0.0000   0.2515
  13.000   1.5392   0.02397   0.01865  -0.0429  0.1945  0.6086  -3.2469   0.0000   0.2494
  13.500   1.5530   0.02719   0.02190  -0.0416  0.1868  0.6135  -3.3314   0.0000   0.2471
  14.000   1.5739   0.02998   0.02479  -0.0409  0.1822  0.6180  -3.4281   0.0000   0.2451
  14.500   1.5877   0.03328   0.02814  -0.0399  0.1758  0.6217  -3.5142   0.0000   0.2430
  15.000   1.5973   0.03693   0.03182  -0.0387  0.1686  0.6250  -3.5964   0.0000   0.2408
  15.500   1.6088   0.04052   0.03546  -0.0378  0.1626  0.6278  -3.6864   0.0000   0.2388
  17.000   1.6334   0.05254   0.04762  -0.0358  0.1440  0.6460  -3.9457   0.0000   0.2333
  17.500   1.6492   0.05601   0.05118  -0.0357  0.1406  0.6523  -4.0492   0.0000   0.2318
  18.000   1.6584   0.06018   0.05543  -0.0356  0.1346  0.6649  -4.1386   0.0000   0.2303
  18.500   1.6642   0.06476   0.06009  -0.0356  0.1290  0.6757  -4.2200   0.0000   0.2288
  19.000   1.6743   0.06899   0.06440  -0.0359  0.1232  0.6937  -4.3107   0.0000   0.2275
  19.500   1.6747   0.07437   0.06989  -0.0363  0.1173  0.7160  -4.3784   0.0000   0.2263
  20.000   1.6737   0.08008   0.07573  -0.0370  0.1120  0.7498  -4.4415   0.0000   0.2254
  20.500   1.6765   0.08568   0.08160  -0.0384  0.1071  0.8319  -4.5147   0.0000   0.2247
  21.000   1.6870   0.09201   0.08830  -0.0416  0.1028  1.0000  -4.6034   0.0000   0.2250
  21.500   1.6749   0.09913   0.09548  -0.0428  0.0977  1.0000  -4.6399   0.0000   0.2243
  22.000   1.6680   0.10577   0.10221  -0.0443  0.0936  1.0000  -4.7329   0.0000   0.2238
  22.500   1.6508   0.11375   0.11026  -0.0464  0.0887  1.0000  -4.8207   0.0000   0.2238
  23.000   1.6435   0.12056   0.11718  -0.0485  0.0856  1.0000  -4.9459   0.0000   0.2237
  23.500   1.6248   0.12897   0.12566  -0.0514  0.0810  1.0000  -5.0246   0.0000   0.2242
  24.000   1.6146   0.13630   0.13309  -0.0544  0.0777  1.0000  -5.1329   0.0000   0.2246
  24.500   1.5964   0.14479   0.14164  -0.0581  0.0735  1.0000  -5.2049   0.0000   0.2257
  25.000   1.5871   0.15212   0.14906  -0.0618  0.0703  1.0000  -5.3098   0.0000   0.2266
  25.500   1.5749   0.15990   0.15690  -0.0659  0.0666  1.0000  -5.3991   0.0000   0.2278
  26.000   1.5684   0.16684   0.16392  -0.0700  0.0637  1.0000  -5.5098   0.0000   0.2289
  26.500   1.5565   0.17459   0.17175  -0.0748  0.0607  1.0000  -5.5926   0.0000   0.2305
  27.000   1.5454   0.18232   0.17955  -0.0798  0.0578  1.0000  -5.6738   0.0000   0.2323
  27.500   1.5462   0.18812   0.18541  -0.0840  0.0552  1.0000  -5.8125   0.0000   0.2332
  28.000   1.5334   0.19617   0.19352  -0.0897  0.0520  1.0000  -5.8768   0.0000   0.2356
  28.500   1.5274   0.20311   0.20054  -0.0950  0.0493  1.0000  -5.9802   0.0000   0.2374
  29.000   1.5222   0.20988   0.20734  -0.1004  0.0461  1.0000  -6.0859   0.0000   0.2393
  29.500   1.5150   0.21697   0.21450  -0.1061  0.0430  1.0000  -6.1762   0.0000   0.2414
  30.000   1.5053   0.22445   0.22204  -0.1123  0.0397  1.0000  -6.2460   0.0000   0.2441
  30.500   1.4988   0.23136   0.22897  -0.1183  0.0355  1.0000  -6.3313   0.0000   0.2464
  31.000   1.4832   0.24000   0.23763  -0.1256  0.0302  1.0000  -6.3504   0.0000   0.2501
  31.500   1.4632   0.24966   0.24730  -0.1337  0.0250  1.0000  -6.3262   0.0000   0.2548
  32.000   1.4483   0.25841   0.25608  -0.1413  0.0207  1.0000  -6.3263   0.0000   0.2589
  32.500   1.4310   0.26778   0.26547  -0.1494  0.0161  1.0000  -6.2949   0.0000   0.2638
  33.000   1.4117   0.27775   0.27545  -0.1579  0.0112  1.0000  -6.2295   0.0000   0.2693
  33.500   1.3998   0.28625   0.28399  -0.1656  0.0088  1.0000  -6.2116   0.0000   0.2736
  34.000   1.3916   0.29387   0.29166  -0.1728  0.0078  1.0000  -6.2155   0.0000   0.2774
  34.500   1.3880   0.30040   0.29827  -0.1794  0.0072  1.0000  -6.2541   0.0000   0.2802
  35.000   1.3876   0.30611   0.30401  -0.1855  0.0067  1.0000  -6.3293   0.0000   0.2823
  35.500   1.3835   0.31269   0.31064  -0.1922  0.0062  1.0000  -6.3620   0.0000   0.2853
  36.000   1.3817   0.31853   0.31655  -0.1986  0.0059  1.0000  -6.4145   0.0000   0.2876
  36.500   1.3850   0.32297   0.32104  -0.2041  0.0057  1.0000  -6.5274   0.0000   0.2888
  37.000   1.3852   0.32807   0.32620  -0.2101  0.0054  1.0000  -6.6010   0.0000   0.2906
  37.500   1.3873   0.33261   0.33076  -0.2158  0.0051  1.0000  -6.7093   0.0000   0.2918
  38.000   1.3869   0.33766   0.33585  -0.2219  0.0048  1.0000  -6.7817   0.0000   0.2936
  38.500   1.3899   0.34159   0.33980  -0.2274  0.0045  1.0000  -6.9120   0.0000   0.2945
  39.000   1.3935   0.34529   0.34354  -0.2328  0.0044  1.0000  -7.0557   0.0000   0.2950
  39.500   1.3946   0.34947   0.34778  -0.2386  0.0042  1.0000  -7.1632   0.0000   0.2962
  40.000   1.3975   0.35299   0.35133  -0.2440  0.0040  1.0000  -7.3013   0.0000   0.2967
  40.500   1.3990   0.35680   0.35518  -0.2496  0.0038  1.0000  -7.4195   0.0000   0.2975
  41.000   1.3997   0.36061   0.35901  -0.2553  0.0036  1.0000  -7.5269   0.0000   0.2985
  41.500   1.4033   0.36325   0.36165  -0.2606  0.0033  1.0000  -7.6842   0.0000   0.2985
  42.000   1.4051   0.36604   0.36448  -0.2660  0.0033  1.0000  -7.8149   0.0000   0.2989
  42.500   1.4051   0.36895   0.36744  -0.2718  0.0031  1.0000  -7.9104   0.0000   0.2997
  45.000   1.4078   0.37928   0.37790  -0.2993  0.0024  1.0000  -8.5054   0.0000   0.3011
  45.500   1.4065   0.38128   0.37995  -0.3049  0.0022  1.0000  -8.6094   0.0000   0.3015


