xflr5 v6.33

 Calculated polar for: Bell A821201 v4

 1 1 Reynolds number fixed          Mach number fixed         

 xtrf =   1.000 (top)        1.000 (bottom)
 Mach =   0.000     Re =     2.000 e 6     Ncrit =   9.000

  alpha     CL        CD       CDp       Cm    Top Xtr Bot Xtr   Cpmin    Chinge    XCp    
 ------- -------- --------- --------- -------- ------- ------- -------- --------- ---------
 -24.000  -0.7219   0.17589   0.17391  -0.0312  0.9970  0.0113  -7.4048   0.0000   0.1445
 -23.500  -0.7698   0.15733   0.15508  -0.0432  0.9965  0.0114  -8.1056   0.0000   0.1346
 -23.000  -0.7926   0.14370   0.14126  -0.0529  0.9957  0.0115  -8.4182   0.0000   0.1260
 -22.500  -0.8094   0.13123   0.12862  -0.0620  0.9946  0.0115  -8.6183   0.0000   0.1180
 -22.000  -0.8200   0.12013   0.11736  -0.0702  0.9931  0.0116  -8.7213   0.0000   0.1107
 -21.500  -0.8390   0.10992   0.10700  -0.0754  0.9905  0.0116  -8.8233   0.0000   0.1085
 -21.000  -0.8533   0.10074   0.09768  -0.0799  0.9886  0.0117  -8.8626   0.0000   0.1066
 -20.500  -0.8638   0.09166   0.08845  -0.0849  0.9847  0.0117  -8.8662   0.0000   0.1036
 -20.000  -0.8747   0.08412   0.08078  -0.0875  0.9745  0.0118  -8.8344   0.0000   0.1037
 -19.500  -0.8323   0.07450   0.07030  -0.1027  0.7885  0.0119  -8.5747   0.0000   0.0803
 -19.000  -0.8309   0.06855   0.06413  -0.1052  0.7595  0.0120  -8.4496   0.0000   0.0785
 -18.500  -0.8251   0.06324   0.05844  -0.1075  0.6766  0.0120  -8.2923   0.0000   0.0762
 -18.000  -0.8167   0.05836   0.05334  -0.1093  0.6439  0.0121  -8.1139   0.0000   0.0738
 -17.500  -0.8065   0.05394   0.04877  -0.1105  0.6284  0.0122  -7.9204   0.0000   0.0718
 -17.000  -0.7938   0.04993   0.04461  -0.1115  0.6168  0.0123  -7.7103   0.0000   0.0695
 -16.500  -0.7793   0.04624   0.04082  -0.1120  0.6093  0.0123  -7.4894   0.0000   0.0672
 -16.000  -0.7609   0.04310   0.03760  -0.1122  0.6046  0.0124  -7.2467   0.0000   0.0643
 -15.500  -0.7417   0.04008   0.03447  -0.1124  0.5994  0.0125  -7.0019   0.0000   0.0612
 -15.000  -0.7202   0.03733   0.03163  -0.1124  0.5932  0.0126  -6.7475   0.0000   0.0574
 -14.500  -0.6962   0.03487   0.02908  -0.1122  0.5881  0.0126  -6.4833   0.0000   0.0528
 -14.000  -0.6723   0.03248   0.02664  -0.1119  0.5868  0.0127  -6.2221   0.0000   0.0483
 -13.500  -0.6458   0.03038   0.02449  -0.1114  0.5852  0.0128  -5.9514   0.0000   0.0427
 -13.000  -0.6184   0.02835   0.02241  -0.1109  0.5834  0.0129  -5.6813   0.0000   0.0363
 -12.500  -0.5892   0.02654   0.02054  -0.1104  0.5813  0.0130  -5.4070   0.0000   0.0286
 -12.000  -0.5588   0.02481   0.01877  -0.1099  0.5790  0.0131  -5.1330   0.0000   0.0196
 -11.500  -0.5254   0.02324   0.01714  -0.1096  0.5765  0.0132  -4.8524   0.0000   0.0077
 -11.000  -0.4886   0.02170   0.01556  -0.1099  0.5737  0.0133  -4.5656   0.0000  -0.0088
 -10.500  -0.4440   0.02034   0.01414  -0.1112  0.5704  0.0134  -4.2593   0.0000  -0.0354
 -10.000  -0.3981   0.01900   0.01276  -0.1127  0.5672  0.0135  -3.9562   0.0000  -0.0695
  -9.500  -0.3593   0.01780   0.01153  -0.1125  0.5650  0.0137  -3.6801   0.0000  -0.1005
  -9.000  -0.3241   0.01662   0.01033  -0.1114  0.5644  0.0138  -3.4194   0.0000  -0.1322
  -8.500  -0.2954   0.01524   0.00893  -0.1093  0.5637  0.0143  -3.1940   0.0000  -0.1593
  -8.000  -0.2677   0.01399   0.00766  -0.1068  0.5628  0.0150  -2.9860   0.0000  -0.1889
  -7.500  -0.2477   0.01273   0.00638  -0.1030  0.5617  0.0156  -2.8100   0.0000  -0.2053
  -7.000  -0.2277   0.01202   0.00565  -0.0973  0.5604  0.0164  -2.6330   0.0000  -0.2170
  -6.500  -0.2147   0.01157   0.00519  -0.0895  0.5588  0.0176  -2.4775   0.0000  -0.2052
  -6.000  -0.1856   0.01111   0.00476  -0.0847  0.5570  0.0221  -2.2875   0.0000  -0.2465
  -5.500  -0.1570   0.01052   0.00428  -0.0797  0.5546  0.0440  -2.0991   0.0000  -0.3008
  -5.000  -0.1254   0.00994   0.00383  -0.0753  0.5502  0.0785  -1.9017   0.0000  -0.3978
  -4.500  -0.0926   0.00937   0.00345  -0.0711  0.5444  0.1294  -1.7042   0.0000  -0.5747
  -4.000  -0.0622   0.00860   0.00301  -0.0664  0.5424  0.2139  -1.5169   0.0000  -0.8907
  -3.500  -0.0349   0.00768   0.00251  -0.0610  0.5413  0.3242  -1.3405   0.0000  -1.6076
  -3.000  -0.0130   0.00654   0.00198  -0.0544  0.5394  0.4909  -1.1795   0.0000  -4.1663
  -2.500   0.0383   0.00645   0.00200  -0.0532  0.5370  0.5302  -0.9664   0.0000   1.7023
  -2.000   0.0930   0.00650   0.00203  -0.0527  0.5345  0.5425  -0.8723   0.0000   0.8342
  -1.500   0.1440   0.00654   0.00208  -0.0514  0.5317  0.5529  -0.9210   0.0000   0.6130
  -1.000   0.1939   0.00669   0.00220  -0.0498  0.5279  0.5597  -0.9693   0.0000   0.5074
  -0.500   0.2470   0.00679   0.00224  -0.0491  0.5216  0.5633  -1.0196   0.0000   0.4459
   0.000   0.3005   0.00668   0.00214  -0.0485  0.5190  0.5664  -1.0730   0.0000   0.4062
   0.500   0.3545   0.00664   0.00210  -0.0480  0.5137  0.5693  -1.1278   0.0000   0.3785
   1.000   0.4067   0.00669   0.00211  -0.0471  0.5066  0.5721  -1.1895   0.0000   0.3577
   1.500   0.4604   0.00674   0.00213  -0.0466  0.4996  0.5735  -1.2548   0.0000   0.3421
   2.000   0.5152   0.00680   0.00216  -0.0464  0.4902  0.5750  -1.3216   0.0000   0.3300
   2.500   0.5675   0.00692   0.00222  -0.0458  0.4740  0.5764  -1.3883   0.0000   0.3197
   3.000   0.6165   0.00720   0.00236  -0.0445  0.4463  0.5776  -1.4554   0.0000   0.3105
   3.500   0.6642   0.00756   0.00259  -0.0432  0.4165  0.5787  -1.5219   0.0000   0.3025
   4.000   0.7121   0.00794   0.00285  -0.0419  0.3924  0.5797  -1.5890   0.0000   0.2956
   4.500   0.7618   0.00831   0.00313  -0.0411  0.3727  0.5806  -1.6580   0.0000   0.2900
   5.000   0.8129   0.00868   0.00343  -0.0406  0.3554  0.5815  -1.7305   0.0000   0.2853
   5.500   0.8663   0.00905   0.00374  -0.0408  0.3407  0.5822  -1.8162   0.0000   0.2817
   6.000   0.9209   0.00948   0.00411  -0.0413  0.3256  0.5827  -1.9037   0.0000   0.2788
   6.500   0.9791   0.00983   0.00443  -0.0425  0.3153  0.5831  -1.9958   0.0000   0.2767
   7.000   1.0487   0.01025   0.00481  -0.0465  0.3021  0.5856  -2.0992   0.0000   0.2769
   9.000   1.2819   0.01230   0.00679  -0.0537  0.2580  0.5951  -2.5054   0.0000   0.2714
   9.500   1.3240   0.01300   0.00748  -0.0525  0.2489  0.5971  -2.6055   0.0000   0.2684
  10.000   1.3651   0.01372   0.00822  -0.0513  0.2416  0.5992  -2.7054   0.0000   0.2654
  10.500   1.3987   0.01478   0.00927  -0.0494  0.2320  0.6012  -2.7963   0.0000   0.2621
  11.000   1.4333   0.01589   0.01041  -0.0478  0.2250  0.6029  -2.8889   0.0000   0.2592
  11.500   1.4587   0.01763   0.01215  -0.0457  0.2155  0.6043  -2.9725   0.0000   0.2561
  12.000   1.4872   0.01952   0.01409  -0.0446  0.2094  0.6053  -3.0614   0.0000   0.2537
  12.500   1.5044   0.02230   0.01687  -0.0430  0.2001  0.6066  -3.1364   0.0000   0.2511
  13.000   1.5327   0.02443   0.01909  -0.0424  0.1961  0.6114  -3.2363   0.0000   0.2491
  13.500   1.5479   0.02756   0.02227  -0.0412  0.1893  0.6160  -3.3228   0.0000   0.2469
  14.000   1.5651   0.03063   0.02540  -0.0403  0.1833  0.6198  -3.4129   0.0000   0.2448
  14.500   1.5820   0.03369   0.02853  -0.0394  0.1778  0.6233  -3.5040   0.0000   0.2428
  15.000   1.5876   0.03767   0.03254  -0.0381  0.1696  0.6263  -3.5782   0.0000   0.2405
  15.500   1.6031   0.04093   0.03586  -0.0374  0.1646  0.6287  -3.6755   0.0000   0.2386
  16.000   1.6068   0.04526   0.04020  -0.0364  0.1563  0.6335  -3.7502   0.0000   0.2366
  16.500   1.6220   0.04871   0.04374  -0.0361  0.1521  0.6416  -3.8517   0.0000   0.2350
  17.000   1.6292   0.05287   0.04795  -0.0356  0.1461  0.6482  -3.9369   0.0000   0.2332
  19.000   1.6698   0.06942   0.06484  -0.0357  0.1249  0.6978  -4.3001   0.0000   0.2274
  19.500   1.6677   0.07507   0.07058  -0.0361  0.1184  0.7216  -4.3621   0.0000   0.2263
  20.000   1.6699   0.08051   0.07619  -0.0370  0.1136  0.7628  -4.4321   0.0000   0.2254
  21.500   1.6655   0.10025   0.09659  -0.0428  0.0986  1.0000  -4.6154   0.0000   0.2245
  22.000   1.6624   0.10643   0.10287  -0.0443  0.0950  1.0000  -4.7133   0.0000   0.2239
  22.500   1.6446   0.11450   0.11101  -0.0464  0.0899  1.0000  -4.7975   0.0000   0.2239
  23.000   1.6368   0.12141   0.11802  -0.0486  0.0867  1.0000  -4.9198   0.0000   0.2238
  23.500   1.6216   0.12938   0.12607  -0.0515  0.0825  1.0000  -5.0114   0.0000   0.2243
  24.000   1.6085   0.13710   0.13388  -0.0546  0.0788  1.0000  -5.1075   0.0000   0.2249
  24.500   1.5937   0.14514   0.14200  -0.0582  0.0749  1.0000  -5.1931   0.0000   0.2258
  25.000   1.5806   0.15304   0.14998  -0.0621  0.0713  1.0000  -5.2809   0.0000   0.2269
  25.500   1.5706   0.16051   0.15752  -0.0661  0.0679  1.0000  -5.3790   0.0000   0.2280
  26.000   1.5622   0.16774   0.16481  -0.0704  0.0645  1.0000  -5.4806   0.0000   0.2293
  26.500   1.5538   0.17497   0.17213  -0.0749  0.0617  1.0000  -5.5791   0.0000   0.2307
  27.000   1.5388   0.18334   0.18056  -0.0803  0.0583  1.0000  -5.6402   0.0000   0.2329
  27.500   1.5424   0.18869   0.18598  -0.0843  0.0561  1.0000  -5.7922   0.0000   0.2335
  28.000   1.5301   0.19668   0.19402  -0.0900  0.0529  1.0000  -5.8586   0.0000   0.2359
  28.500   1.5244   0.20358   0.20101  -0.0952  0.0502  1.0000  -5.9624   0.0000   0.2377
  29.000   1.5136   0.21134   0.20881  -0.1012  0.0468  1.0000  -6.0345   0.0000   0.2402
  29.500   1.5137   0.21716   0.21469  -0.1062  0.0440  1.0000  -6.1674   0.0000   0.2415
  30.000   1.5024   0.22493   0.22251  -0.1126  0.0406  1.0000  -6.2271   0.0000   0.2444
  30.500   1.4926   0.23247   0.23008  -0.1190  0.0366  1.0000  -6.2898   0.0000   0.2472
  31.000   1.4830   0.24002   0.23765  -0.1256  0.0318  1.0000  -6.3477   0.0000   0.2501
  31.500   1.4658   0.24909   0.24674  -0.1332  0.0264  1.0000  -6.3446   0.0000   0.2543
  32.000   1.4480   0.25844   0.25611  -0.1412  0.0218  1.0000  -6.3232   0.0000   0.2589
  32.500   1.4328   0.26734   0.26504  -0.1491  0.0174  1.0000  -6.3084   0.0000   0.2634
  33.000   1.4140   0.27718   0.27490  -0.1576  0.0123  1.0000  -6.2484   0.0000   0.2688
  34.000   1.3912   0.29395   0.29174  -0.1728  0.0081  1.0000  -6.2102   0.0000   0.2774
  34.500   1.3857   0.30092   0.29877  -0.1797  0.0074  1.0000  -6.2294   0.0000   0.2807
  35.000   1.3856   0.30659   0.30449  -0.1858  0.0069  1.0000  -6.3068   0.0000   0.2827
  35.500   1.3829   0.31275   0.31070  -0.1923  0.0065  1.0000  -6.3551   0.0000   0.2853
  36.000   1.3793   0.31916   0.31715  -0.1989  0.0060  1.0000  -6.3831   0.0000   0.2882
  36.500   1.3831   0.32348   0.32153  -0.2044  0.0058  1.0000  -6.5009   0.0000   0.2892
  37.000   1.3838   0.32845   0.32655  -0.2103  0.0055  1.0000  -6.5808   0.0000   0.2909
  37.500   1.3865   0.33281   0.33095  -0.2159  0.0053  1.0000  -6.6961   0.0000   0.2920
  38.000   1.3866   0.33771   0.33589  -0.2220  0.0050  1.0000  -6.7761   0.0000   0.2937
  38.500   1.3891   0.34180   0.33999  -0.2276  0.0046  1.0000  -6.8989   0.0000   0.2946
  39.000   1.3929   0.34540   0.34363  -0.2329  0.0045  1.0000  -7.0452   0.0000   0.2952
  39.500   1.3942   0.34954   0.34783  -0.2386  0.0043  1.0000  -7.1550   0.0000   0.2963
  40.000   1.3971   0.35308   0.35140  -0.2441  0.0041  1.0000  -7.2920   0.0000   0.2968
  40.500   1.3995   0.35661   0.35496  -0.2495  0.0039  1.0000  -7.4246   0.0000   0.2974
  41.000   1.3998   0.36049   0.35887  -0.2553  0.0037  1.0000  -7.5247   0.0000   0.2984
  41.500   1.4023   0.36346   0.36185  -0.2607  0.0035  1.0000  -7.6644   0.0000   0.2988
  42.000   1.4056   0.36584   0.36425  -0.2660  0.0033  1.0000  -7.8196   0.0000   0.2988
  42.500   1.4055   0.36876   0.36723  -0.2717  0.0032  1.0000  -7.9160   0.0000   0.2996
  43.000   1.4065   0.37111   0.36963  -0.2773  0.0031  1.0000  -8.0344   0.0000   0.3000
  43.500   1.4074   0.37330   0.37186  -0.2828  0.0029  1.0000  -8.1551   0.0000   0.3003
  45.500   1.4084   0.38088   0.37951  -0.3047  0.0023  1.0000  -8.6461   0.0000   0.3010
  49.000   0.6867   0.48614   0.48560  -0.1892  0.0001  1.0000  -1.0663   0.0000   0.4068
  49.500   0.6822   0.48749   0.48696  -0.1911  0.0001  1.0000  -1.0857   0.0000   0.4081
  50.000   0.6775   0.48825   0.48773  -0.1929  0.0002  1.0000  -1.1122   0.0000   0.4094


