xflr5 v6.33

 Calculated polar for: Bell A821201 v4

 1 1 Reynolds number fixed          Mach number fixed         

 xtrf =   1.000 (top)        1.000 (bottom)
 Mach =   0.000     Re =     0.300 e 6     Ncrit =   9.000

  alpha     CL        CD       CDp       Cm    Top Xtr Bot Xtr   Cpmin    Chinge    XCp    
 ------- -------- --------- --------- -------- ------- ------- -------- --------- ---------
 -30.000  -0.3785   0.25754   0.25455   0.0102  1.0000  0.0202  -0.9599   0.0000   0.2310
 -29.500  -0.3695   0.25325   0.25026   0.0079  1.0000  0.0204  -0.9431   0.0000   0.2256
 -29.000  -0.3594   0.24967   0.24668   0.0057  1.0000  0.0209  -0.9042   0.0000   0.2202
 -28.500  -0.3502   0.24587   0.24287   0.0034  1.0000  0.0216  -0.8919   0.0000   0.2137
 -28.000  -0.3414   0.24181   0.23881   0.0009  1.0000  0.0225  -0.8947   0.0000   0.2067
 -27.500  -0.3346   0.23715   0.23414  -0.0018  1.0000  0.0236  -0.9463   0.0000   0.1981
 -27.000  -0.3296   0.23238   0.22936  -0.0047  1.0000  0.0239  -1.0147   0.0000   0.1888
 -26.500  -0.3168   0.22879   0.22579  -0.0064  1.0000  0.0244  -0.9498   0.0000   0.1826
 -26.000  -0.3064   0.22517   0.22218  -0.0085  1.0000  0.0252  -0.9271   0.0000   0.1746
 -25.500  -0.2971   0.22118   0.21819  -0.0107  1.0000  0.0263  -0.9331   0.0000   0.1656
 -25.000  -0.2943   0.21630   0.21330  -0.0139  1.0000  0.0276  -1.0533   0.0000   0.1537
 -24.500  -0.2843   0.21195   0.20896  -0.0159  1.0000  0.0279  -1.0472   0.0000   0.1445
 -24.000  -0.2715   0.20849   0.20552  -0.0174  1.0000  0.0285  -0.9873   0.0000   0.1352
 -23.500  -0.2610   0.20483   0.20188  -0.0194  1.0000  0.0295  -0.9630   0.0000   0.1243
 -23.000  -0.2526   0.20071   0.19777  -0.0216  1.0000  0.0310  -0.9862   0.0000   0.1121
 -22.500  -0.2511   0.19570   0.19277  -0.0246  1.0000  0.0320  -1.1127   0.0000   0.0989
 -22.000  -0.2364   0.19233   0.18943  -0.0257  1.0000  0.0326  -1.0423   0.0000   0.0864
 -21.500  -0.2255   0.18878   0.18590  -0.0274  1.0000  0.0338  -1.0217   0.0000   0.0722
 -21.000  -0.2199   0.18441   0.18155  -0.0298  1.0000  0.0358  -1.0769   0.0000   0.0571
 -20.500  -0.2176   0.17958   0.17675  -0.0323  1.0000  0.0366  -1.1598   0.0000   0.0429
 -20.000  -0.2025   0.17638   0.17359  -0.0333  1.0000  0.0374  -1.0850   0.0000   0.0246
 -19.500  -0.1924   0.17275   0.17001  -0.0350  1.0000  0.0390  -1.0662   0.0000   0.0053
 -19.000  -0.1795   0.16304   0.16027  -0.0448  0.9838  0.0414  -1.2399   0.0000  -0.0689
 -18.500  -0.0852   0.15051   0.14742  -0.0700  0.8715  0.0441  -1.0847   0.0000  -0.7147
 -18.000  -0.0342   0.13943   0.13585  -0.0907  0.8118  0.0471  -1.1692   0.0000  -2.7716
 -17.500  -0.0059   0.13485   0.13086  -0.0969  0.7691  0.0491  -1.1184   0.0000  -18.3046
 -17.000  -0.3237   0.16875   0.16567  -0.0413  0.9990  0.0467  -1.9108   0.0000   0.0572
 -16.500  -0.2447   0.15738   0.15418  -0.0578  0.8971  0.0484  -1.7093   0.0000  -0.0681
 -16.000  -0.1592   0.13828   0.13441  -0.0896  0.8065  0.0532  -1.7553   0.0000  -0.4360
 -15.000  -0.6660   0.06086   0.05596  -0.0958  0.9128  0.0298  -5.1137   0.0000   0.0689
 -14.500  -0.5642   0.04697   0.04057  -0.1282  0.8028  0.0294  -4.9778   0.0000  -0.0187
 -14.000  -0.5193   0.04276   0.03568  -0.1342  0.7583  0.0295  -4.8041   0.0000  -0.0512
 -13.500  -0.4863   0.03999   0.03256  -0.1348  0.7315  0.0298  -4.6269   0.0000  -0.0707
 -13.000  -0.4495   0.03781   0.03009  -0.1349  0.7138  0.0303  -4.4211   0.0000  -0.0949
 -12.500  -0.4105   0.03597   0.02796  -0.1349  0.7009  0.0311  -4.2052   0.0000  -0.1252
 -12.000  -0.3690   0.03440   0.02619  -0.1348  0.6920  0.0317  -3.9845   0.0000  -0.1643
 -11.500  -0.3154   0.03344   0.02522  -0.1346  0.6846  0.0325  -3.7223   0.0000  -0.2310
 -11.000  -0.2706   0.03227   0.02401  -0.1349  0.6785  0.0337  -3.4812   0.0000  -0.3081
 -10.500  -0.2348   0.03095   0.02268  -0.1341  0.6738  0.0351  -3.2742   0.0000  -0.3858
 -10.000  -0.2038   0.02950   0.02121  -0.1329  0.6692  0.0368  -3.0871   0.0000  -0.4725
  -9.500  -0.1782   0.02791   0.01963  -0.1313  0.6650  0.0392  -2.9079   0.0000  -0.5624
  -9.000  -0.1558   0.02625   0.01793  -0.1294  0.6604  0.0428  -2.7600   0.0000  -0.6616
  -8.500  -0.1351   0.02463   0.01633  -0.1272  0.6567  0.0502  -2.6371   0.0000  -0.7780
  -8.000  -0.1319   0.02261   0.01453  -0.1222  0.6540  0.0733  -2.5601   0.0000  -0.7594
  -7.500  -0.1435   0.02022   0.01253  -0.1153  0.6511  0.1270  -2.4943   0.0000  -0.6240
  -7.000  -0.1685   0.01765   0.01028  -0.1063  0.6480  0.1851  -2.4435   0.0000  -0.4367
  -6.500  -0.2073   0.01609   0.00898  -0.0922  0.6444  0.2456  -2.4131   0.0000  -0.2364
  -6.000  -0.2322   0.01448   0.00794  -0.0792  0.6412  0.3675  -2.3466   0.0000  -0.1253
  -5.500  -0.2119   0.01455   0.00864  -0.0722  0.6382  0.5182  -2.1691   0.0000  -0.1250
  -5.000  -0.1590   0.01567   0.00965  -0.0710  0.6344  0.5490  -1.9218   0.0000  -0.2369
  -4.500  -0.1019   0.01707   0.01109  -0.0698  0.6313  0.5716  -1.6685   0.0000  -0.4905
  -4.000  -0.0400   0.01864   0.01272  -0.0693  0.6270  0.5893  -1.4132   0.0000  -1.6017
  -3.500   0.0180   0.02006   0.01408  -0.0683  0.6214  0.6055  -1.1771   0.0000   4.2605
  -3.000   0.0904   0.02114   0.01517  -0.0695  0.6158  0.6126  -0.9238   0.0000   1.0542
  -2.500   0.1468   0.02174   0.01569  -0.0693  0.6107  0.6179  -0.8734   0.0000   0.7382
  -2.000   0.1795   0.02138   0.01524  -0.0659  0.6061  0.6285  -0.9100   0.0000   0.6264
  -1.500   0.2250   0.02108   0.01493  -0.0640  0.6007  0.6333  -0.9550   0.0000   0.5383
  -1.000   0.2782   0.02098   0.01477  -0.0633  0.5946  0.6368  -1.0058   0.0000   0.4777
  -0.500   0.3328   0.02108   0.01473  -0.0633  0.5887  0.6405  -1.0591   0.0000   0.4380
   0.000   0.3702   0.02060   0.01425  -0.0604  0.5829  0.6442  -1.1022   0.0000   0.4089
   0.500   0.4105   0.02018   0.01377  -0.0580  0.5761  0.6485  -1.1504   0.0000   0.3855
   1.000   0.4589   0.01976   0.01320  -0.0571  0.5703  0.6514  -1.2114   0.0000   0.3673
   1.500   0.5085   0.01962   0.01291  -0.0565  0.5638  0.6535  -1.2736   0.0000   0.3527
   2.000   0.5434   0.01902   0.01240  -0.0526  0.5557  0.6563  -1.3254   0.0000   0.3374
   2.500   0.5933   0.01852   0.01183  -0.0515  0.5480  0.6584  -1.3898   0.0000   0.3264
   3.000   0.6408   0.01818   0.01142  -0.0500  0.5399  0.6604  -1.4551   0.0000   0.3167
   3.500   0.6760   0.01772   0.01099  -0.0461  0.5298  0.6626  -1.5120   0.0000   0.3059
   4.000   0.7280   0.01727   0.01041  -0.0453  0.5216  0.6654  -1.5836   0.0000   0.2992
   4.500   0.7493   0.01688   0.01012  -0.0387  0.5098  0.6675  -1.6294   0.0000   0.2876
   5.000   0.7823   0.01643   0.00959  -0.0343  0.4991  0.6697  -1.6875   0.0000   0.2789
   5.500   0.7980   0.01609   0.00924  -0.0265  0.4850  0.6718  -1.7388   0.0000   0.2673
   6.000   0.8175   0.01608   0.00919  -0.0198  0.4681  0.6739  -1.7934   0.0000   0.2574
   6.500   0.8376   0.01634   0.00934  -0.0135  0.4491  0.6762  -1.8483   0.0000   0.2483
   7.000   0.8600   0.01672   0.00960  -0.0082  0.4298  0.6784  -1.9047   0.0000   0.2408
   7.500   0.8858   0.01736   0.01017  -0.0040  0.4119  0.6807  -1.9633   0.0000   0.2349
   8.000   0.9138   0.01821   0.01098  -0.0007  0.3956  0.6831  -2.0234   0.0000   0.2302
   8.500   0.9440   0.01926   0.01196   0.0017  0.3804  0.6858  -2.0851   0.0000   0.2268
   9.000   0.9769   0.02046   0.01309   0.0031  0.3657  0.6887  -2.1491   0.0000   0.2245
   9.500   1.0098   0.02189   0.01461   0.0037  0.3528  0.6918  -2.2231   0.0000   0.2231
  10.000   1.0470   0.02339   0.01608   0.0035  0.3409  0.6955  -2.3086   0.0000   0.2225
  10.500   1.0814   0.02515   0.01786   0.0031  0.3293  0.6990  -2.3905   0.0000   0.2220
  11.000   1.1235   0.02709   0.01989   0.0007  0.3177  0.7028  -2.4805   0.0000   0.2234
  11.500   1.1666   0.02885   0.02160  -0.0014  0.3055  0.7070  -2.5742   0.0000   0.2243
  12.000   1.1956   0.03162   0.02459  -0.0031  0.2952  0.7116  -2.6480   0.0000   0.2247
  12.500   1.2348   0.03352   0.02644  -0.0046  0.2855  0.7170  -2.7424   0.0000   0.2248
  13.000   1.2595   0.03660   0.02969  -0.0059  0.2762  0.7222  -2.8157   0.0000   0.2247
  13.500   1.3031   0.03864   0.03175  -0.0086  0.2670  0.7291  -2.9234   0.0000   0.2256
  14.000   1.3281   0.04211   0.03546  -0.0107  0.2585  0.7368  -3.0099   0.0000   0.2259
  14.500   1.3641   0.04413   0.03742  -0.0118  0.2498  0.7462  -3.1232   0.0000   0.2255
  15.000   1.3809   0.04841   0.04204  -0.0138  0.2418  0.7574  -3.2004   0.0000   0.2256
  15.500   1.4138   0.05085   0.04447  -0.0152  0.2334  0.7739  -3.3135   0.0000   0.2253
  16.000   1.4273   0.05565   0.04963  -0.0174  0.2255  0.7982  -3.3893   0.0000   0.2254
  16.500   1.4792   0.05863   0.05290  -0.0233  0.2162  0.9109  -3.5406   0.0000   0.2279
  17.000   1.4866   0.06472   0.05918  -0.0246  0.2095  1.0000  -3.6104   0.0000   0.2273
  17.500   1.5023   0.06844   0.06286  -0.0250  0.2025  1.0000  -3.7025   0.0000   0.2262
  18.000   1.5080   0.07332   0.06788  -0.0255  0.1958  1.0000  -3.7746   0.0000   0.2251
  18.500   1.5119   0.07855   0.07321  -0.0263  0.1892  1.0000  -3.8427   0.0000   0.2242
  19.000   1.5248   0.08261   0.07728  -0.0268  0.1826  1.0000  -3.9305   0.0000   0.2231
  19.500   1.5162   0.08959   0.08446  -0.0282  0.1761  1.0000  -3.9663   0.0000   0.2227
  20.000   1.5391   0.09228   0.08704  -0.0287  0.1697  1.0000  -4.0782   0.0000   0.2215
  20.500   1.5145   0.10169   0.09678  -0.0312  0.1639  1.0000  -4.0686   0.0000   0.2218
  21.000   1.5222   0.10660   0.10170  -0.0327  0.1581  1.0000  -4.1444   0.0000   0.2213
  21.500   1.5131   0.11387   0.10915  -0.0349  0.1525  1.0000  -4.1727   0.0000   0.2214
  22.000   1.5055   0.12114   0.11654  -0.0376  0.1469  1.0000  -4.2033   0.0000   0.2218
  22.500   1.5164   0.12547   0.12089  -0.0393  0.1415  1.0000  -4.2977   0.0000   0.2213
  23.000   1.4850   0.13643   0.13212  -0.0440  0.1357  1.0000  -4.3055   0.0000   0.2234
  23.500   1.5167   0.13754   0.13310  -0.0449  0.1308  1.0000  -4.5570   0.0000   0.2219
  24.000   1.4583   0.15310   0.14908  -0.0525  0.1251  1.0000  -4.4417   0.0000   0.2265
  24.500   1.4800   0.15588   0.15180  -0.0546  0.1204  1.0000  -4.6587   0.0000   0.2258
  25.000   1.4214   0.17187   0.16814  -0.0634  0.1145  1.0000  -4.5149   0.0000   0.2319
  25.500   1.4471   0.17389   0.17010  -0.0655  0.1101  1.0000  -4.7583   0.0000   0.2309
  26.000   1.3092   0.20545   0.20213  -0.0841  0.1003  1.0000  -4.1608   0.0000   0.2485
  26.500   1.4094   0.19324   0.18973  -0.0784  0.1000  1.0000  -4.8023   0.0000   0.2379
  27.500   1.3505   0.21722   0.21399  -0.0952  0.0894  1.0000  -4.6779   0.0000   0.2495
  32.500   1.2267   0.31815   0.31555  -0.1746  0.0296  1.0000  -4.0535   0.0000   0.3054
  33.000   1.2475   0.31800   0.31544  -0.1776  0.0290  1.0000  -4.3473   0.0000   0.3028
  33.500   1.2717   0.31687   0.31434  -0.1801  0.0288  1.0000  -4.6909   0.0000   0.2992
  34.000   1.3004   0.31445   0.31194  -0.1818  0.0286  1.0000  -5.0967   0.0000   0.2944
  34.500   1.3353   0.31047   0.30791  -0.1826  0.0283  1.0000  -5.5757   0.0000   0.2882
  35.000   1.3307   0.31787   0.31533  -0.1897  0.0243  1.0000  -5.5449   0.0000   0.2919
  35.500   1.3347   0.32260   0.32006  -0.1953  0.0219  1.0000  -5.6205   0.0000   0.2933
  36.500   1.3456   0.33069   0.32816  -0.2061  0.0186  1.0000  -5.8363   0.0000   0.2950
  39.500   0.7270   0.41180   0.41002  -0.1477  0.0101  1.0000  -1.0927   0.0000   0.3804
  40.000   0.7286   0.41609   0.41434  -0.1504  0.0094  1.0000  -1.1320   0.0000   0.3815
  40.500   0.7279   0.42439   0.42266  -0.1531  0.0087  1.0000  -1.0601   0.0000   0.3838
  41.000   0.7285   0.42918   0.42747  -0.1558  0.0078  1.0000  -1.0862   0.0000   0.3852
  41.500   0.7294   0.43274   0.43105  -0.1584  0.0075  1.0000  -1.1481   0.0000   0.3859
  42.000   0.7274   0.44223   0.44057  -0.1610  0.0066  1.0000  -1.0485   0.0000   0.3887
  42.500   0.7272   0.44599   0.44436  -0.1636  0.0061  1.0000  -1.0875   0.0000   0.3898
  43.000   0.7261   0.45190   0.45029  -0.1660  0.0059  1.0000  -1.0689   0.0000   0.3914
  43.500   0.7244   0.45903   0.45745  -0.1684  0.0052  1.0000  -1.0083   0.0000   0.3934
  44.000   0.7231   0.46285   0.46129  -0.1709  0.0048  1.0000  -1.0263   0.0000   0.3946
  44.500   0.7222   0.46469   0.46316  -0.1733  0.0046  1.0000  -1.0952   0.0000   0.3952
  45.000   0.7189   0.47373   0.47221  -0.1755  0.0041  1.0000  -0.9589   0.0000   0.3978
  45.500   0.7167   0.47780   0.47630  -0.1778  0.0037  1.0000  -0.9480   0.0000   0.3991
  46.000   0.7142   0.48049   0.47902  -0.1800  0.0035  1.0000  -0.9659   0.0000   0.4003


