xflr5 v6.33

 Calculated polar for: Bell A821201 v4

 1 1 Reynolds number fixed          Mach number fixed         

 xtrf =   1.000 (top)        1.000 (bottom)
 Mach =   0.000     Re =     4.300 e 6     Ncrit =   9.000

  alpha     CL        CD       CDp       Cm    Top Xtr Bot Xtr   Cpmin    Chinge    XCp    
 ------- -------- --------- --------- -------- ------- ------- -------- --------- ---------
 -27.000  -0.7416   0.20385   0.20240  -0.0226  0.9943  0.0092  -8.0271   0.0000   0.1477
 -26.500  -0.7616   0.19062   0.18904  -0.0323  0.9937  0.0093  -8.5038   0.0000   0.1380
 -26.000  -0.7773   0.17832   0.17662  -0.0418  0.9930  0.0095  -8.8499   0.0000   0.1287
 -25.500  -0.7960   0.16676   0.16495  -0.0496  0.9914  0.0096  -9.1400   0.0000   0.1223
 -25.000  -0.8260   0.15702   0.15510  -0.0530  0.9903  0.0096  -9.4110   0.0000   0.1233
 -24.500  -0.8559   0.14534   0.14329  -0.0595  0.9896  0.0097  -9.7030   0.0000   0.1205
 -24.000  -0.8864   0.13327   0.13107  -0.0665  0.9885  0.0097  -9.9689   0.0000   0.1174
 -23.500  -0.9121   0.12209   0.11975  -0.0730  0.9868  0.0097  -10.1523   0.0000   0.1146
 -23.000  -0.9409   0.11054   0.10804  -0.0797  0.9843  0.0098  -10.3342   0.0000   0.1122
 -22.500  -0.9655   0.09980   0.09713  -0.0858  0.9799  0.0098  -10.4513   0.0000   0.1101
 -21.500  -0.9819   0.08182   0.07814  -0.0981  0.7771  0.0099  -10.3953   0.0000   0.1024
 -21.000  -0.9923   0.07440   0.07055  -0.1013  0.7600  0.0099  -10.3363   0.0000   0.1019
 -20.500  -0.9939   0.06829   0.06424  -0.1038  0.7234  0.0099  -10.2045   0.0000   0.1011
 -20.000  -0.9899   0.06287   0.05847  -0.1062  0.6441  0.0100  -10.0320   0.0000   0.0997
 -19.500  -0.9844   0.05792   0.05337  -0.1077  0.6257  0.0100  -9.8406   0.0000   0.0989
 -19.000  -0.9756   0.05351   0.04883  -0.1088  0.6104  0.0101  -9.6251   0.0000   0.0980
 -18.500  -0.9643   0.04949   0.04471  -0.1096  0.6032  0.0101  -9.3916   0.0000   0.0971
 -18.000  -0.9507   0.04581   0.04092  -0.1101  0.5935  0.0101  -9.1437   0.0000   0.0961
 -17.500  -0.9325   0.04273   0.03777  -0.1102  0.5874  0.0102  -8.8690   0.0000   0.0946
 -17.000  -0.9137   0.03975   0.03473  -0.1102  0.5847  0.0102  -8.5922   0.0000   0.0932
 -16.500  -0.8935   0.03697   0.03187  -0.1101  0.5813  0.0103  -8.3098   0.0000   0.0915
 -16.000  -0.8690   0.03463   0.02946  -0.1098  0.5770  0.0103  -8.0075   0.0000   0.0891
 -15.500  -0.8452   0.03224   0.02700  -0.1095  0.5714  0.0103  -7.7118   0.0000   0.0867
 -15.000  -0.8177   0.03024   0.02494  -0.1091  0.5667  0.0104  -7.4012   0.0000   0.0836
 -14.500  -0.7905   0.02823   0.02290  -0.1085  0.5650  0.0104  -7.0957   0.0000   0.0803
 -14.000  -0.7619   0.02642   0.02104  -0.1078  0.5645  0.0105  -6.7875   0.0000   0.0767
 -13.500  -0.7327   0.02470   0.01930  -0.1070  0.5639  0.0105  -6.4814   0.0000   0.0727
 -13.000  -0.7026   0.02311   0.01768  -0.1062  0.5630  0.0105  -6.1756   0.0000   0.0682
 -12.500  -0.6715   0.02157   0.01611  -0.1053  0.5620  0.0106  -5.8713   0.0000   0.0629
 -12.000  -0.6377   0.02018   0.01470  -0.1046  0.5607  0.0106  -5.5611   0.0000   0.0560
 -11.500  -0.6031   0.01878   0.01328  -0.1040  0.5591  0.0107  -5.2545   0.0000   0.0479
 -11.000  -0.5654   0.01750   0.01197  -0.1036  0.5573  0.0107  -4.9425   0.0000   0.0371
 -10.500  -0.5241   0.01630   0.01074  -0.1038  0.5551  0.0107  -4.6253   0.0000   0.0222
 -10.000  -0.4750   0.01515   0.00956  -0.1053  0.5521  0.0108  -4.2906   0.0000  -0.0022
  -9.500  -0.4187   0.01410   0.00848  -0.1080  0.5490  0.0108  -3.9424   0.0000  -0.0401
  -9.000  -0.3758   0.01304   0.00740  -0.1081  0.5463  0.0109  -3.6448   0.0000  -0.0707
  -8.500  -0.3389   0.01200   0.00635  -0.1070  0.5439  0.0109  -3.3724   0.0000  -0.0997
  -8.000  -0.3157   0.01109   0.00541  -0.1028  0.5426  0.0110  -3.1487   0.0000  -0.1092
  -7.500  -0.2924   0.01051   0.00481  -0.0971  0.5423  0.0114  -2.9605   0.0000  -0.1157
  -7.000  -0.2748   0.01013   0.00443  -0.0899  0.5418  0.0119  -2.7856   0.0000  -0.1099
  -6.500  -0.2384   0.00977   0.00407  -0.0862  0.5409  0.0127  -2.5639   0.0000  -0.1461
  -6.000  -0.1974   0.00944   0.00375  -0.0834  0.5390  0.0135  -2.3324   0.0000  -0.2101
  -5.500  -0.1546   0.00912   0.00346  -0.0809  0.5366  0.0157  -2.1068   0.0000  -0.3160
  -5.000  -0.1136   0.00875   0.00315  -0.0780  0.5342  0.0269  -1.8868   0.0000  -0.4884
  -4.500  -0.0744   0.00832   0.00282  -0.0748  0.5302  0.0530  -1.6750   0.0000  -0.8248
  -4.000  -0.0337   0.00793   0.00254  -0.0718  0.5253  0.0848  -1.4652   0.0000  -2.0131
  -3.500   0.0050   0.00749   0.00228  -0.0684  0.5215  0.1342  -1.2665   0.0000  14.6626
  -3.000   0.0398   0.00687   0.00195  -0.0642  0.5209  0.2142  -1.0826   0.0000   1.9369
  -2.500   0.0681   0.00613   0.00160  -0.0587  0.5201  0.3254  -0.9176   0.0000   1.1455
  -2.000   0.0932   0.00521   0.00122  -0.0525  0.5187  0.4836  -0.8735   0.0000   0.8308
  -1.500   0.1486   0.00509   0.00121  -0.0523  0.5149  0.5243  -0.9248   0.0000   0.6075
  -1.000   0.2050   0.00513   0.00124  -0.0522  0.5076  0.5378  -0.9770   0.0000   0.5050
  -0.500   0.2616   0.00521   0.00127  -0.0522  0.5005  0.5397  -1.0297   0.0000   0.4466
   0.000   0.3191   0.00521   0.00131  -0.0525  0.4956  0.5510  -1.0859   0.0000   0.4093
   0.500   0.3760   0.00532   0.00135  -0.0526  0.4831  0.5530  -1.1425   0.0000   0.3833
   1.000   0.4326   0.00545   0.00141  -0.0528  0.4669  0.5547  -1.2086   0.0000   0.3641
   1.500   0.4871   0.00572   0.00154  -0.0526  0.4373  0.5563  -1.2746   0.0000   0.3491
   2.000   0.5393   0.00608   0.00175  -0.0520  0.4038  0.5581  -1.3394   0.0000   0.3366
   2.500   0.5935   0.00637   0.00193  -0.0519  0.3812  0.5593  -1.4096   0.0000   0.3267
   3.000   0.6495   0.00665   0.00212  -0.0522  0.3622  0.5598  -1.4824   0.0000   0.3189
   3.500   0.7069   0.00694   0.00232  -0.0528  0.3441  0.5602  -1.5569   0.0000   0.3125
   4.000   0.7664   0.00721   0.00253  -0.0539  0.3310  0.5606  -1.6339   0.0000   0.3075
   4.500   0.8285   0.00745   0.00272  -0.0556  0.3198  0.5608  -1.7138   0.0000   0.3036
   5.000   0.8937   0.00776   0.00297  -0.0581  0.3054  0.5617  -1.8040   0.0000   0.3009
   5.500   0.9766   0.00809   0.00323  -0.0646  0.2920  0.5642  -1.9179   0.0000   0.3014
   6.000   1.0421   0.00837   0.00347  -0.0673  0.2807  0.5664  -2.0176   0.0000   0.2991
   6.500   1.0989   0.00872   0.00377  -0.0681  0.2683  0.5686  -2.1103   0.0000   0.2958
   7.000   1.1542   0.00898   0.00402  -0.0686  0.2621  0.5708  -2.2027   0.0000   0.2925
   7.500   1.2035   0.00938   0.00438  -0.0680  0.2497  0.5728  -2.2899   0.0000   0.2888
   8.000   1.2543   0.00971   0.00470  -0.0678  0.2426  0.5745  -2.3795   0.0000   0.2855
   8.500   1.3008   0.01015   0.00511  -0.0668  0.2320  0.5762  -2.4777   0.0000   0.2820
   9.000   1.3458   0.01059   0.00553  -0.0656  0.2248  0.5778  -2.5821   0.0000   0.2786
   9.500   1.3886   0.01112   0.00603  -0.0641  0.2151  0.5791  -2.6847   0.0000   0.2751
  10.000   1.4290   0.01169   0.00660  -0.0623  0.2086  0.5803  -2.7855   0.0000   0.2717
  10.500   1.4656   0.01242   0.00730  -0.0601  0.1994  0.5814  -2.8821   0.0000   0.2681
  11.000   1.5034   0.01314   0.00803  -0.0583  0.1943  0.5822  -2.9816   0.0000   0.2649
  11.500   1.5335   0.01422   0.00910  -0.0556  0.1862  0.5827  -3.0756   0.0000   0.2615
  12.000   1.5688   0.01520   0.01010  -0.0540  0.1822  0.5834  -3.1784   0.0000   0.2586
  12.500   1.5948   0.01679   0.01171  -0.0518  0.1752  0.5872  -3.2741   0.0000   0.2556
  13.000   1.6206   0.01874   0.01369  -0.0503  0.1681  0.5917  -3.3799   0.0000   0.2530
  13.500   1.6378   0.02142   0.01638  -0.0485  0.1595  0.5956  -3.4735   0.0000   0.2504
  14.000   1.6561   0.02409   0.01910  -0.0470  0.1532  0.5987  -3.5690   0.0000   0.2480
  14.500   1.6697   0.02720   0.02223  -0.0455  0.1482  0.6014  -3.6606   0.0000   0.2456
  15.000   1.6837   0.03041   0.02549  -0.0443  0.1427  0.6035  -3.7582   0.0000   0.2434
  15.500   1.7019   0.03329   0.02844  -0.0434  0.1402  0.6050  -3.8667   0.0000   0.2414
  16.000   1.7066   0.03728   0.03244  -0.0419  0.1338  0.6059  -3.9515   0.0000   0.2391
  16.500   1.7170   0.04094   0.03616  -0.0410  0.1286  0.6114  -4.0471   0.0000   0.2371
  17.000   1.7196   0.04533   0.04058  -0.0400  0.1221  0.6181  -4.1265   0.0000   0.2352
  17.500   1.7321   0.04886   0.04415  -0.0394  0.1164  0.6234  -4.2265   0.0000   0.2333
  18.000   1.7326   0.05357   0.04889  -0.0387  0.1098  0.6274  -4.3007   0.0000   0.2315
  19.500   1.7511   0.06678   0.06228  -0.0382  0.0971  0.6515  -4.5562   0.0000   0.2268
  20.000   1.7501   0.07211   0.06767  -0.0383  0.0918  0.6652  -4.6268   0.0000   0.2255
  20.500   1.7555   0.07676   0.07240  -0.0387  0.0875  0.6771  -4.7135   0.0000   0.2242
  21.000   1.7478   0.08306   0.07878  -0.0393  0.0825  0.6958  -4.7674   0.0000   0.2232
  21.500   1.7435   0.08913   0.08498  -0.0403  0.0787  0.7204  -4.8529   0.0000   0.2223
  22.000   1.7319   0.09618   0.09216  -0.0417  0.0743  0.7588  -4.9718   0.0000   0.2217
  23.000   1.7153   0.11154   0.10815  -0.0475  0.0660  1.0000  -5.2248   0.0000   0.2221
  23.500   1.7038   0.11873   0.11543  -0.0497  0.0633  1.0000  -5.3403   0.0000   0.2220
  24.000   1.6842   0.12712   0.12390  -0.0525  0.0600  1.0000  -5.4203   0.0000   0.2224
  24.500   1.6790   0.13359   0.13044  -0.0551  0.0575  1.0000  -5.5557   0.0000   0.2224
  25.000   1.6668   0.14102   0.13794  -0.0583  0.0551  1.0000  -5.6601   0.0000   0.2229
  25.500   1.6497   0.14925   0.14626  -0.0622  0.0519  1.0000  -5.7390   0.0000   0.2239
  26.000   1.6369   0.15695   0.15404  -0.0663  0.0496  1.0000  -5.8324   0.0000   0.2249
  26.500   1.6190   0.16543   0.16260  -0.0710  0.0464  1.0000  -5.8972   0.0000   0.2265
  27.000   1.6067   0.17307   0.17032  -0.0757  0.0441  1.0000  -5.9839   0.0000   0.2280
  27.500   1.5990   0.18005   0.17732  -0.0803  0.0404  1.0000  -6.0893   0.0000   0.2293
  28.000   1.5806   0.18879   0.18612  -0.0862  0.0363  1.0000  -6.1411   0.0000   0.2317
  28.500   1.5605   0.19791   0.19528  -0.0925  0.0317  1.0000  -6.1759   0.0000   0.2346
  29.000   1.5363   0.20784   0.20525  -0.0997  0.0263  1.0000  -6.1774   0.0000   0.2382
  29.500   1.5157   0.21726   0.21471  -0.1068  0.0222  1.0000  -6.1891   0.0000   0.2419
  30.000   1.4975   0.22630   0.22379  -0.1139  0.0185  1.0000  -6.2051   0.0000   0.2456
  30.500   1.4810   0.23512   0.23266  -0.1211  0.0150  1.0000  -6.2222   0.0000   0.2493
  31.000   1.4564   0.24567   0.24323  -0.1296  0.0099  1.0000  -6.1720   0.0000   0.2545
  31.500   1.4409   0.25463   0.25225  -0.1371  0.0077  1.0000  -6.1709   0.0000   0.2588
  32.000   1.4374   0.26116   0.25883  -0.1433  0.0069  1.0000  -6.2518   0.0000   0.2612
  32.500   1.4335   0.26771   0.26543  -0.1495  0.0062  1.0000  -6.3259   0.0000   0.2637
  33.000   1.4289   0.27440   0.27220  -0.1559  0.0058  1.0000  -6.3886   0.0000   0.2664
  33.500   1.4308   0.27957   0.27741  -0.1614  0.0056  1.0000  -6.5045   0.0000   0.2679
  34.000   1.4264   0.28608   0.28399  -0.1679  0.0053  1.0000  -6.5618   0.0000   0.2705
  34.500   1.4204   0.29292   0.29090  -0.1746  0.0049  1.0000  -6.5976   0.0000   0.2735
  35.000   1.4201   0.29836   0.29638  -0.1805  0.0046  1.0000  -6.6850   0.0000   0.2753
  35.500   1.4187   0.30397   0.30206  -0.1866  0.0045  0.9999  -6.7678   0.0000   0.2774
  36.000   1.4215   0.30848   0.30661  -0.1921  0.0043  0.9999  -6.8942   0.0000   0.2785
  36.500   1.4194   0.31408   0.31227  -0.1983  0.0042  0.9999  -6.9647   0.0000   0.2806
  37.000   1.4165   0.31975   0.31800  -0.2047  0.0040  0.9999  -7.0229   0.0000   0.2829
  37.500   1.4170   0.32452   0.32281  -0.2105  0.0037  0.9999  -7.1215   0.0000   0.2843
  38.000   1.4117   0.33075   0.32909  -0.2173  0.0034  0.9999  -7.1499   0.0000   0.2871
  38.500   1.4138   0.33482   0.33320  -0.2228  0.0033  0.9999  -7.2850   0.0000   0.2880
  39.000   1.4129   0.33957   0.33800  -0.2288  0.0032  0.9999  -7.3801   0.0000   0.2896
  39.500   1.4157   0.34319   0.34165  -0.2342  0.0031  0.9999  -7.5270   0.0000   0.2902
  40.000   1.4138   0.34800   0.34651  -0.2404  0.0030  0.9998  -7.6046   0.0000   0.2919
  40.500   1.4153   0.35169   0.35023  -0.2459  0.0028  0.9998  -7.7361   0.0000   0.2926
  41.000   1.4121   0.35661   0.35519  -0.2522  0.0026  0.9998  -7.7906   0.0000   0.2944
  41.500   1.4119   0.36050   0.35911  -0.2579  0.0024  0.9998  -7.8935   0.0000   0.2954
  42.000   1.4093   0.36471   0.36336  -0.2641  0.0023  0.9998  -7.9525   0.0000   0.2969
  42.500   1.4115   0.36705   0.36572  -0.2694  0.0022  0.9998  -8.1005   0.0000   0.2971
  43.000   1.4128   0.36928   0.36799  -0.2748  0.0022  0.9997  -8.2337   0.0000   0.2973
  43.500   1.4114   0.37187   0.37062  -0.2806  0.0021  0.9997  -8.3186   0.0000   0.2982
  44.000   1.4125   0.37364   0.37241  -0.2860  0.0020  0.9997  -8.4542   0.0000   0.2983
  44.500   1.4100   0.37617   0.37498  -0.2920  0.0019  0.9997  -8.5178   0.0000   0.2994
  45.000   1.4092   0.37811   0.37694  -0.2976  0.0017  0.9997  -8.6209   0.0000   0.2998
  45.500   1.4055   0.38072   0.37957  -0.3036  0.0015  0.9997  -8.6675   0.0000   0.3009


