xflr5 v6.33

 Calculated polar for: Bell A821201 v4

 1 1 Reynolds number fixed          Mach number fixed         

 xtrf =   1.000 (top)        1.000 (bottom)
 Mach =   0.000     Re =     0.200 e 6     Ncrit =   9.000

  alpha     CL        CD       CDp       Cm    Top Xtr Bot Xtr   Cpmin    Chinge    XCp    
 ------- -------- --------- --------- -------- ------- ------- -------- --------- ---------
 -30.000  -0.3739   0.25932   0.25567   0.0106  1.0000  0.0267  -0.8464   0.0000   0.2329
 -29.500  -0.3681   0.25482   0.25116   0.0076  1.0000  0.0275  -0.8970   0.0000   0.2251
 -28.500  -0.3496   0.24654   0.24288   0.0030  1.0000  0.0285  -0.8787   0.0000   0.2128
 -28.000  -0.3402   0.24265   0.23898   0.0007  1.0000  0.0295  -0.8670   0.0000   0.2060
 -27.500  -0.3315   0.23850   0.23483  -0.0018  1.0000  0.0308  -0.8730   0.0000   0.1983
 -27.000  -0.3304   0.23427   0.23059  -0.0054  1.0000  0.0318  -0.9864   0.0000   0.1870
 -26.500  -0.3155   0.22981   0.22614  -0.0068  1.0000  0.0323  -0.9146   0.0000   0.1812
 -26.000  -0.3046   0.22604   0.22238  -0.0089  1.0000  0.0333  -0.8934   0.0000   0.1732
 -25.500  -0.2951   0.22206   0.21840  -0.0112  1.0000  0.0347  -0.8971   0.0000   0.1640
 -25.000  -0.2903   0.21773   0.21407  -0.0141  1.0000  0.0361  -0.9731   0.0000   0.1524
 -24.500  -0.2809   0.21335   0.20970  -0.0163  1.0000  0.0366  -0.9762   0.0000   0.1424
 -24.000  -0.2681   0.20966   0.20603  -0.0179  1.0000  0.0376  -0.9271   0.0000   0.1326
 -23.500  -0.2581   0.20584   0.20222  -0.0200  1.0000  0.0395  -0.9159   0.0000   0.1210
 -23.000  -0.2625   0.20196   0.19834  -0.0239  1.0000  0.0411  -1.0815   0.0000   0.1072
 -22.500  -0.2427   0.19741   0.19382  -0.0245  1.0000  0.0418  -0.9832   0.0000   0.0953
 -22.000  -0.2307   0.19381   0.19025  -0.0261  1.0000  0.0432  -0.9565   0.0000   0.0816
 -21.500  -0.2229   0.18983   0.18629  -0.0283  1.0000  0.0454  -0.9833   0.0000   0.0665
 -21.000  -0.2212   0.18542   0.18191  -0.0311  1.0000  0.0466  -1.0676   0.0000   0.0522
 -20.500  -0.2053   0.18184   0.17837  -0.0320  1.0000  0.0478  -0.9993   0.0000   0.0343
 -20.000  -0.1959   0.17813   0.17470  -0.0337  1.0000  0.0501  -0.9940   0.0000   0.0160
 -19.500  -0.1971   0.17366   0.17027  -0.0367  1.0000  0.0523  -1.0913   0.0000   0.0017
 -19.000  -0.1800   0.17027   0.16695  -0.0374  1.0000  0.0540  -1.0242   0.0000  -0.0236
 -18.500  -0.1785   0.16630   0.16304  -0.0401  1.0000  0.0574  -1.0976   0.0000  -0.0411
 -18.000  -0.3280   0.18937   0.18543  -0.0316  1.0000  0.0570  -1.5866   0.0000   0.0863
 -17.500  -0.3240   0.18201   0.17816  -0.0351  1.0000  0.0587  -1.6648   0.0000   0.0753
 -17.000  -0.3034   0.17723   0.17345  -0.0360  1.0000  0.0605  -1.5820   0.0000   0.0633
 -16.000  -0.2914   0.16326   0.15967  -0.0421  1.0000  0.0662  -1.6605   0.0000   0.0390
 -15.500  -0.2872   0.14840   0.14487  -0.0556  0.9855  0.0722  -1.8567   0.0000  -0.0102
 -15.000  -0.1604   0.13498   0.13096  -0.0821  0.8395  0.0770  -1.5866   0.0000  -0.3749
 -14.500  -0.1014   0.12044   0.11586  -0.1042  0.8008  0.0828  -1.6384   0.0000  -0.9534
 -14.000  -0.6016   0.05761   0.05206  -0.1052  0.8797  0.0393  -4.4644   0.0000   0.0382
 -13.500  -0.5192   0.04604   0.03909  -0.1302  0.8081  0.0391  -4.3612   0.0000  -0.0413
 -13.000  -0.4665   0.04113   0.03336  -0.1385  0.7780  0.0397  -4.2044   0.0000  -0.0896
 -12.500  -0.4225   0.03810   0.02984  -0.1403  0.7589  0.0402  -4.0378   0.0000  -0.1268
 -12.000  -0.3753   0.03592   0.02733  -0.1403  0.7442  0.0407  -3.8473   0.0000  -0.1718
 -11.500  -0.3095   0.03459   0.02593  -0.1409  0.7338  0.0419  -3.5839   0.0000  -0.2603
 -11.000  -0.2563   0.03358   0.02492  -0.1407  0.7251  0.0437  -3.3386   0.0000  -0.3619
 -10.500  -0.2087   0.03259   0.02381  -0.1402  0.7183  0.0461  -3.1265   0.0000  -0.4947
 -10.000  -0.1720   0.03145   0.02281  -0.1387  0.7119  0.0493  -2.9274   0.0000  -0.6405
  -9.500  -0.1445   0.03003   0.02142  -0.1368  0.7062  0.0539  -2.7652   0.0000  -0.7900
  -9.000  -0.1241   0.02838   0.01977  -0.1344  0.7009  0.0620  -2.6545   0.0000  -0.9351
  -8.500  -0.1185   0.02637   0.01796  -0.1301  0.6965  0.0809  -2.5825   0.0000  -0.9491
  -8.000  -0.1344   0.02373   0.01579  -0.1234  0.6923  0.1339  -2.5503   0.0000  -0.7507
  -7.500  -0.1659   0.02086   0.01343  -0.1143  0.6882  0.2114  -2.5262   0.0000  -0.5012
  -7.000  -0.2137   0.01847   0.01139  -0.1011  0.6843  0.2775  -2.5257   0.0000  -0.2680
  -6.500  -0.2555   0.01726   0.01075  -0.0855  0.6802  0.3858  -2.5003   0.0000  -0.1194
  -5.500  -0.1780   0.02034   0.01433  -0.0763  0.6727  0.5544  -2.0618   0.0000  -0.2200
  -5.000  -0.1230   0.02292   0.01684  -0.0738  0.6676  0.5831  -1.8066   0.0000  -0.4027
  -4.500   0.0128   0.02760   0.02156  -0.0808  0.6628  0.5901  -1.3783   0.0000   7.0059
  -4.000   0.0764   0.02950   0.02330  -0.0800  0.6581  0.6086  -1.1317   0.0000   1.3590
  -3.500   0.1626   0.03116   0.02493  -0.0817  0.6518  0.6126  -0.8533   0.0000   0.7771
  -3.000   0.1537   0.03028   0.02403  -0.0730  0.6454  0.6317  -0.8539   0.0000   0.7460
  -2.500   0.2287   0.03086   0.02449  -0.0743  0.6392  0.6355  -0.9176   0.0000   0.5858
  -2.000   0.2785   0.03112   0.02465  -0.0731  0.6334  0.6428  -0.9656   0.0000   0.5185
  -1.500   0.2576   0.02979   0.02338  -0.0630  0.6269  0.6568  -0.9673   0.0000   0.4985
  -1.000   0.3141   0.03008   0.02363  -0.0619  0.6195  0.6624  -1.0204   0.0000   0.4478
  -0.500   0.3479   0.02928   0.02265  -0.0597  0.6131  0.6701  -1.0615   0.0000   0.4200
   0.000   0.3432   0.02814   0.02149  -0.0524  0.6050  0.6778  -1.0741   0.0000   0.3991
   0.500   0.3860   0.02764   0.02097  -0.0502  0.5965  0.6805  -1.1241   0.0000   0.3747
   1.000   0.4437   0.02711   0.02027  -0.0509  0.5900  0.6831  -1.1922   0.0000   0.3578
   1.500   0.4640   0.02704   0.02029  -0.0452  0.5804  0.6872  -1.2305   0.0000   0.3393
   2.000   0.5077   0.02631   0.01947  -0.0439  0.5717  0.6900  -1.2883   0.0000   0.3270
   2.500   0.5704   0.02568   0.01862  -0.0458  0.5647  0.6929  -1.3618   0.0000   0.3199
   3.000   0.5821   0.02525   0.01827  -0.0386  0.5526  0.6966  -1.3956   0.0000   0.3048
   3.500   0.6470   0.02423   0.01703  -0.0405  0.5448  0.6986  -1.4769   0.0000   0.3004
   4.000   0.6627   0.02381   0.01666  -0.0337  0.5323  0.7006  -1.5164   0.0000   0.2874
   4.500   0.7216   0.02275   0.01550  -0.0340  0.5236  0.7034  -1.5942   0.0000   0.2830
   5.000   0.7326   0.02235   0.01518  -0.0259  0.5106  0.7055  -1.6305   0.0000   0.2702
   5.500   0.7926   0.02141   0.01408  -0.0265  0.5014  0.7077  -1.7224   0.0000   0.2676
   6.000   0.7842   0.02114   0.01390  -0.0148  0.4871  0.7101  -1.7500   0.0000   0.2518
   6.500   0.8058   0.02101   0.01372  -0.0089  0.4733  0.7129  -1.8055   0.0000   0.2430
   7.000   0.8388   0.02084   0.01343  -0.0051  0.4588  0.7165  -1.8722   0.0000   0.2372
   7.500   0.8739   0.02087   0.01328  -0.0021  0.4428  0.7191  -1.9406   0.0000   0.2326
   8.000   0.8956   0.02145   0.01379   0.0026  0.4260  0.7216  -1.9946   0.0000   0.2264
   8.500   0.9195   0.02230   0.01459   0.0062  0.4100  0.7243  -2.0491   0.0000   0.2216
   9.000   0.9529   0.02322   0.01551   0.0079  0.3951  0.7274  -2.1135   0.0000   0.2192
   9.500   0.9955   0.02412   0.01631   0.0082  0.3811  0.7310  -2.1984   0.0000   0.2186
  10.000   1.0302   0.02535   0.01754   0.0089  0.3674  0.7357  -2.2809   0.0000   0.2172
  10.500   1.0597   0.02709   0.01937   0.0095  0.3549  0.7407  -2.3552   0.0000   0.2160
  11.000   1.1112   0.02810   0.02025   0.0080  0.3434  0.7452  -2.4592   0.0000   0.2170
  11.500   1.1398   0.03046   0.02283   0.0067  0.3313  0.7501  -2.5303   0.0000   0.2173
  12.000   1.1806   0.03239   0.02482   0.0048  0.3197  0.7560  -2.6206   0.0000   0.2183
  12.500   1.2196   0.03429   0.02674   0.0029  0.3085  0.7632  -2.7138   0.0000   0.2189
  13.000   1.2481   0.03719   0.02985   0.0011  0.2983  0.7705  -2.7905   0.0000   0.2194
  13.500   1.2978   0.03881   0.03148  -0.0019  0.2885  0.7803  -2.9085   0.0000   0.2208
  14.000   1.3141   0.04275   0.03570  -0.0037  0.2789  0.7912  -2.9783   0.0000   0.2209
  14.500   1.3697   0.04437   0.03735  -0.0076  0.2697  0.8072  -3.1204   0.0000   0.2228
  15.000   1.3838   0.04944   0.04283  -0.0110  0.2603  0.8282  -3.1876   0.0000   0.2239
  15.500   1.4609   0.05050   0.04409  -0.0181  0.2506  0.9142  -3.3743   0.0000   0.2275
  16.000   1.4460   0.05789   0.05176  -0.0187  0.2424  1.0000  -3.3955   0.0000   0.2265
  16.500   1.4760   0.06011   0.05387  -0.0192  0.2346  1.0000  -3.5135   0.0000   0.2255
  17.000   1.4610   0.06688   0.06088  -0.0195  0.2267  1.0000  -3.5366   0.0000   0.2244
  17.500   1.4762   0.07054   0.06456  -0.0199  0.2194  1.0000  -3.6241   0.0000   0.2233
  18.000   1.4735   0.07634   0.07050  -0.0204  0.2123  1.0000  -3.6739   0.0000   0.2223
  18.500   1.4640   0.08303   0.07736  -0.0215  0.2048  1.0000  -3.7080   0.0000   0.2216
  19.000   1.4874   0.08584   0.08015  -0.0219  0.1983  1.0000  -3.8169   0.0000   0.2205
  19.500   1.4222   0.10008   0.09480  -0.0249  0.1905  1.0000  -3.7089   0.0000   0.2216
  20.000   1.4953   0.09632   0.09078  -0.0242  0.1848  1.0000  -3.9413   0.0000   0.2192
  20.500   1.2766   0.13416   0.12945  -0.0361  0.1725  1.0000  -3.3950   0.0000   0.2292
  21.000   1.4137   0.11966   0.11467  -0.0313  0.1712  1.0000  -3.8214   0.0000   0.2219
  22.500   0.9331   0.24087   0.23668  -0.0891  0.1287  1.0000  -1.8432   0.0000   0.2953
  23.000   0.9306   0.25174   0.24762  -0.0961  0.1330  1.0000  -1.7490   0.0000   0.3023
  23.500   0.9803   0.24731   0.24320  -0.0941  0.1184  1.0000  -2.0263   0.0000   0.2927
  24.000   0.9508   0.26461   0.26057  -0.1060  0.1234  1.0000  -1.7335   0.0000   0.3080
  24.500   0.9803   0.26699   0.26300  -0.1074  0.1202  1.0000  -1.8624   0.0000   0.3044
  25.000   0.9774   0.27589   0.27194  -0.1149  0.1144  1.0000  -1.8128   0.0000   0.3112
  25.500   1.0011   0.27878   0.27489  -0.1173  0.1099  1.0000  -1.9539   0.0000   0.3091
  26.500   1.0229   0.29054   0.28675  -0.1272  0.1004  1.0000  -2.0483   0.0000   0.3134
  27.500   1.0505   0.30037   0.29668  -0.1360  0.0906  1.0000  -2.1875   0.0000   0.3151
  28.000   1.0587   0.30663   0.30298  -0.1416  0.0840  1.0000  -2.2056   0.0000   0.3178
  29.000   1.1014   0.30845   0.30490  -0.1469  0.0659  1.0000  -2.5874   0.0000   0.3130
  29.500   1.1112   0.31301   0.30950  -0.1521  0.0566  1.0000  -2.6459   0.0000   0.3147
  30.000   1.1324   0.31339   0.30993  -0.1548  0.0516  1.0000  -2.8609   0.0000   0.3121
  30.500   1.1449   0.31713   0.31372  -0.1594  0.0459  1.0000  -2.9574   0.0000   0.3126
  31.000   1.1593   0.31997   0.31662  -0.1635  0.0416  1.0000  -3.0844   0.0000   0.3122
  31.500   1.1679   0.32524   0.32192  -0.1688  0.0369  1.0000  -3.1086   0.0000   0.3138
  32.000   1.1678   0.33559   0.33228  -0.1761  0.0329  1.0000  -2.9086   0.0000   0.3186
  33.000   1.1813   0.35023   0.34696  -0.1874  0.0320  1.0000  -2.7473   0.0000   0.3229
  33.500   1.1796   0.36467   0.36141  -0.1960  0.0382  1.0000  -2.3630   0.0000   0.3295
  34.000   1.1935   0.36717   0.36395  -0.1996  0.0369  1.0000  -2.4857   0.0000   0.3281
  34.500   1.1979   0.37486   0.37164  -0.2065  0.0349  1.0000  -2.3751   0.0000   0.3314
  35.000   1.2093   0.37783   0.37465  -0.2108  0.0328  1.0000  -2.4695   0.0000   0.3309
  35.500   1.2189   0.38212   0.37896  -0.2155  0.0320  1.0000  -2.5071   0.0000   0.3310
  36.000   1.2253   0.38751   0.38438  -0.2217  0.0293  1.0000  -2.4515   0.0000   0.3329
  36.500   1.2383   0.38892   0.38583  -0.2247  0.0284  1.0000  -2.6200   0.0000   0.3307
  37.000   0.7213   0.38219   0.37987  -0.1341  0.0223  1.0000  -1.0807   0.0000   0.3718
  37.500   0.7237   0.38844   0.38615  -0.1369  0.0212  1.0000  -1.0887   0.0000   0.3733
  38.000   0.7248   0.39559   0.39333  -0.1399  0.0193  1.0000  -1.0751   0.0000   0.3756
  38.500   0.7294   0.39918   0.39696  -0.1423  0.0185  1.0000  -1.1613   0.0000   0.3753
  39.000   0.7271   0.40895   0.40675  -0.1455  0.0167  1.0000  -1.0612   0.0000   0.3793
  40.000   0.7285   0.42177   0.41963  -0.1510  0.0143  1.0000  -1.0375   0.0000   0.3828
  40.500   0.7302   0.42581   0.42372  -0.1536  0.0135  1.0000  -1.0791   0.0000   0.3835
  41.000   0.7289   0.43421   0.43214  -0.1563  0.0126  1.0000  -1.0075   0.0000   0.3861
  41.500   0.7292   0.43908   0.43704  -0.1589  0.0115  1.0000  -1.0298   0.0000   0.3873
  42.000   0.7285   0.44537   0.44336  -0.1615  0.0109  1.0000  -1.0153   0.0000   0.3891
  42.500   0.7277   0.45117   0.44918  -0.1640  0.0098  1.0000  -1.0035   0.0000   0.3907
  43.000   0.7276   0.45448   0.45253  -0.1665  0.0093  1.0000  -1.0493   0.0000   0.3915
  43.500   0.7254   0.46213   0.46021  -0.1689  0.0088  1.0000  -0.9784   0.0000   0.3937
  44.000   0.7239   0.46704   0.46515  -0.1713  0.0080  1.0000  -0.9688   0.0000   0.3951
  44.500   0.7226   0.47019   0.46832  -0.1737  0.0076  1.0000  -0.9981   0.0000   0.3961
  45.000   0.7201   0.47608   0.47423  -0.1759  0.0074  1.0000  -0.9516   0.0000   0.3979
  45.500   0.7176   0.48120   0.47939  -0.1782  0.0067  1.0000  -0.9153   0.0000   0.3994
  46.000   0.7152   0.48420   0.48242  -0.1804  0.0062  1.0000  -0.9254   0.0000   0.4006


