xflr5 v6.33

 Calculated polar for: Bell A821201 v4

 1 1 Reynolds number fixed          Mach number fixed         

 xtrf =   1.000 (top)        1.000 (bottom)
 Mach =   0.000     Re =     3.700 e 6     Ncrit =   9.000

  alpha     CL        CD       CDp       Cm    Top Xtr Bot Xtr   Cpmin    Chinge    XCp    
 ------- -------- --------- --------- -------- ------- ------- -------- --------- ---------
 -26.000  -0.7347   0.19104   0.18946  -0.0309  0.9941  0.0096  -8.0105   0.0000   0.1391
 -25.500  -0.7594   0.17676   0.17502  -0.0413  0.9934  0.0098  -8.5025   0.0000   0.1292
 -25.000  -0.7790   0.16402   0.16215  -0.0505  0.9924  0.0099  -8.8378   0.0000   0.1209
 -24.500  -0.8104   0.15299   0.15099  -0.0553  0.9906  0.0099  -9.1482   0.0000   0.1202
 -24.000  -0.8356   0.14240   0.14028  -0.0607  0.9898  0.0100  -9.3724   0.0000   0.1183
 -23.500  -0.8623   0.13090   0.12863  -0.0672  0.9886  0.0100  -9.5955   0.0000   0.1153
 -23.000  -0.8893   0.11938   0.11696  -0.0738  0.9868  0.0101  -9.7907   0.0000   0.1124
 -22.500  -0.9125   0.10854   0.10596  -0.0800  0.9840  0.0101  -9.9218   0.0000   0.1098
 -22.000  -0.9306   0.09870   0.09597  -0.0856  0.9775  0.0101  -9.9848   0.0000   0.1075
 -21.500  -0.9279   0.08858   0.08501  -0.0951  0.7933  0.0102  -9.9282   0.0000   0.0983
 -21.000  -0.9385   0.08087   0.07712  -0.0987  0.7742  0.0102  -9.8883   0.0000   0.0973
 -20.500  -0.9462   0.07371   0.06978  -0.1019  0.7552  0.0103  -9.8152   0.0000   0.0966
 -20.000  -0.9450   0.06774   0.06343  -0.1047  0.6668  0.0103  -9.6741   0.0000   0.0950
 -19.500  -0.9417   0.06230   0.05778  -0.1067  0.6351  0.0103  -9.5102   0.0000   0.0938
 -19.000  -0.9357   0.05738   0.05273  -0.1082  0.6217  0.0104  -9.3223   0.0000   0.0928
 -18.500  -0.9264   0.05301   0.04824  -0.1093  0.6092  0.0104  -9.1102   0.0000   0.0917
 -18.000  -0.9143   0.04905   0.04418  -0.1100  0.6021  0.0104  -8.8792   0.0000   0.0905
 -17.500  -0.8999   0.04542   0.04044  -0.1106  0.5927  0.0105  -8.6346   0.0000   0.0890
 -17.000  -0.8824   0.04226   0.03720  -0.1107  0.5874  0.0105  -8.3714   0.0000   0.0874
 -16.500  -0.8623   0.03940   0.03428  -0.1107  0.5851  0.0106  -8.0956   0.0000   0.0854
 -16.000  -0.8424   0.03659   0.03139  -0.1105  0.5820  0.0106  -7.8232   0.0000   0.0835
 -15.500  -0.8169   0.03431   0.02905  -0.1103  0.5783  0.0106  -7.5240   0.0000   0.0804
 -15.000  -0.7933   0.03191   0.02657  -0.1100  0.5736  0.0107  -7.2378   0.0000   0.0775
 -14.500  -0.7648   0.02997   0.02458  -0.1095  0.5692  0.0107  -6.9317   0.0000   0.0735
 -14.000  -0.7378   0.02792   0.02248  -0.1091  0.5655  0.0107  -6.6367   0.0000   0.0695
 -13.500  -0.7079   0.02621   0.02073  -0.1084  0.5648  0.0108  -6.3322   0.0000   0.0647
 -13.000  -0.6794   0.02445   0.01894  -0.1076  0.5643  0.0108  -6.0384   0.0000   0.0600
 -12.500  -0.6480   0.02294   0.01740  -0.1068  0.5636  0.0108  -5.7367   0.0000   0.0539
 -12.000  -0.6165   0.02138   0.01581  -0.1061  0.5627  0.0108  -5.4409   0.0000   0.0471
 -11.500  -0.5818   0.02002   0.01443  -0.1054  0.5615  0.0109  -5.1377   0.0000   0.0382
 -11.000  -0.5459   0.01864   0.01304  -0.1049  0.5602  0.0109  -4.8372   0.0000   0.0272
 -10.500  -0.5069   0.01734   0.01172  -0.1049  0.5586  0.0109  -4.5322   0.0000   0.0123
 -10.000  -0.4627   0.01606   0.01040  -0.1058  0.5566  0.0110  -4.2225   0.0000  -0.0100
  -9.500  -0.4105   0.01477   0.00906  -0.1082  0.5544  0.0111  -3.9015   0.0000  -0.0464
  -9.000  -0.3704   0.01357   0.00782  -0.1080  0.5521  0.0113  -3.6221   0.0000  -0.0753
  -8.500  -0.3348   0.01242   0.00664  -0.1069  0.5495  0.0115  -3.3616   0.0000  -0.1036
  -8.000  -0.3116   0.01140   0.00557  -0.1031  0.5469  0.0119  -3.1523   0.0000  -0.1150
  -7.500  -0.2865   0.01085   0.00501  -0.0979  0.5444  0.0123  -2.9483   0.0000  -0.1261
  -7.000  -0.2711   0.01049   0.00465  -0.0903  0.5426  0.0127  -2.7702   0.0000  -0.1165
  -6.500  -0.2358   0.01012   0.00429  -0.0865  0.5421  0.0133  -2.5483   0.0000  -0.1517
  -6.000  -0.1953   0.00979   0.00396  -0.0836  0.5410  0.0139  -2.3185   0.0000  -0.2161
  -5.500  -0.1545   0.00942   0.00362  -0.0807  0.5389  0.0170  -2.1030   0.0000  -0.3156
  -5.000  -0.1160   0.00897   0.00327  -0.0774  0.5372  0.0341  -1.8900   0.0000  -0.4683
  -4.500  -0.0770   0.00850   0.00293  -0.0742  0.5347  0.0631  -1.6788   0.0000  -0.7801
  -4.000  -0.0371   0.00807   0.00262  -0.0710  0.5308  0.0995  -1.4707   0.0000  -1.7853
  -3.000   0.0315   0.00692   0.00198  -0.0626  0.5229  0.2459  -1.0977   0.0000   2.3318
  -2.500   0.0536   0.00604   0.00157  -0.0558  0.5211  0.3820  -0.9436   0.0000   1.3350
  -2.000   0.0892   0.00534   0.00132  -0.0518  0.5202  0.5121  -0.8710   0.0000   0.8487
  -1.500   0.1453   0.00530   0.00134  -0.0516  0.5182  0.5335  -0.9226   0.0000   0.6111
  -1.000   0.2021   0.00535   0.00136  -0.0516  0.5135  0.5394  -0.9752   0.0000   0.5055
  -0.500   0.2578   0.00538   0.00136  -0.0514  0.5055  0.5474  -1.0273   0.0000   0.4465
   0.000   0.3135   0.00544   0.00142  -0.0513  0.4998  0.5541  -1.0822   0.0000   0.4083
   0.500   0.3709   0.00549   0.00144  -0.0515  0.4932  0.5556  -1.1392   0.0000   0.3821
   1.000   0.4270   0.00560   0.00149  -0.0515  0.4804  0.5571  -1.2046   0.0000   0.3627
   1.500   0.4816   0.00579   0.00158  -0.0513  0.4590  0.5586  -1.2707   0.0000   0.3475
   2.000   0.5324   0.00614   0.00177  -0.0504  0.4251  0.5598  -1.3345   0.0000   0.3347
   2.500   0.5845   0.00646   0.00196  -0.0498  0.3977  0.5604  -1.4027   0.0000   0.3244
   3.000   0.6382   0.00676   0.00216  -0.0496  0.3764  0.5607  -1.4735   0.0000   0.3162
   3.500   0.6931   0.00705   0.00236  -0.0497  0.3582  0.5609  -1.5460   0.0000   0.3094
   4.000   0.7545   0.00733   0.00256  -0.0513  0.3415  0.5630  -1.6242   0.0000   0.3051
   4.500   0.8181   0.00763   0.00280  -0.0534  0.3255  0.5651  -1.7049   0.0000   0.3018
   5.000   0.8856   0.00788   0.00301  -0.0564  0.3158  0.5677  -1.7965   0.0000   0.2995
   5.500   0.9602   0.00819   0.00328  -0.0610  0.3028  0.5699  -1.9027   0.0000   0.2988
   6.000   1.0296   0.00858   0.00359  -0.0647  0.2864  0.5717  -2.0055   0.0000   0.2973
   6.500   1.0887   0.00887   0.00386  -0.0660  0.2781  0.5733  -2.1003   0.0000   0.2944
   7.000   1.1423   0.00922   0.00418  -0.0662  0.2674  0.5748  -2.1907   0.0000   0.2910
   7.500   1.1939   0.00958   0.00451  -0.0661  0.2585  0.5762  -2.2800   0.0000   0.2876
   8.000   1.2436   0.00996   0.00487  -0.0656  0.2486  0.5775  -2.3682   0.0000   0.2843
   8.500   1.2903   0.01040   0.00527  -0.0647  0.2400  0.5788  -2.4654   0.0000   0.2808
   9.000   1.3354   0.01086   0.00572  -0.0636  0.2310  0.5799  -2.5696   0.0000   0.2774
   9.500   1.3777   0.01142   0.00625  -0.0621  0.2227  0.5810  -2.6714   0.0000   0.2740
  10.000   1.4182   0.01202   0.00684  -0.0604  0.2142  0.5818  -2.7719   0.0000   0.2706
  10.500   1.4545   0.01278   0.00758  -0.0582  0.2068  0.5825  -2.8680   0.0000   0.2671
  11.000   1.4893   0.01364   0.00844  -0.0560  0.1987  0.5830  -2.9630   0.0000   0.2637
  11.500   1.5245   0.01459   0.00941  -0.0543  0.1934  0.5859  -3.0634   0.0000   0.2607
  12.000   1.5507   0.01606   0.01089  -0.0518  0.1847  0.5898  -3.1523   0.0000   0.2575
  12.500   1.5845   0.01737   0.01225  -0.0507  0.1814  0.5938  -3.2582   0.0000   0.2550
  13.000   1.6054   0.01972   0.01463  -0.0490  0.1738  0.5969  -3.3551   0.0000   0.2524
  13.500   1.6283   0.02205   0.01700  -0.0477  0.1673  0.5997  -3.4577   0.0000   0.2500
  14.000   1.6402   0.02517   0.02013  -0.0458  0.1586  0.6020  -3.5420   0.0000   0.2474
  14.500   1.6557   0.02822   0.02321  -0.0445  0.1530  0.6039  -3.6359   0.0000   0.2451
  15.000   1.6651   0.03181   0.02684  -0.0431  0.1480  0.6051  -3.7235   0.0000   0.2429
  15.500   1.6754   0.03533   0.03040  -0.0418  0.1426  0.6060  -3.8147   0.0000   0.2407
  16.000   1.6940   0.03830   0.03345  -0.0412  0.1398  0.6124  -3.9259   0.0000   0.2388
  16.500   1.6984   0.04242   0.03760  -0.0401  0.1326  0.6186  -4.0090   0.0000   0.2367
  17.000   1.7091   0.04619   0.04143  -0.0394  0.1280  0.6235  -4.1045   0.0000   0.2349
  17.500   1.7106   0.05076   0.04603  -0.0386  0.1213  0.6273  -4.1808   0.0000   0.2330
  20.500   1.7356   0.07890   0.07455  -0.0385  0.0913  0.6934  -4.6647   0.0000   0.2242
  21.000   1.7386   0.08408   0.07985  -0.0392  0.0873  0.7179  -4.7434   0.0000   0.2232
  21.500   1.7297   0.09074   0.08664  -0.0404  0.0826  0.7539  -4.8052   0.0000   0.2225
  22.500   1.7194   0.10529   0.10182  -0.0457  0.0741  1.0000  -5.0794   0.0000   0.2225
  23.000   1.7077   0.11246   0.10907  -0.0475  0.0707  1.0000  -5.1953   0.0000   0.2222
  23.500   1.6881   0.12074   0.11743  -0.0500  0.0667  1.0000  -5.2779   0.0000   0.2224
  24.000   1.6743   0.12840   0.12518  -0.0527  0.0636  1.0000  -5.3798   0.0000   0.2226
  24.500   1.6566   0.13662   0.13348  -0.0560  0.0605  1.0000  -5.4617   0.0000   0.2233
  25.000   1.6430   0.14435   0.14130  -0.0594  0.0579  1.0000  -5.5569   0.0000   0.2240
  25.500   1.6403   0.15055   0.14756  -0.0626  0.0555  1.0000  -5.6966   0.0000   0.2243
  26.000   1.6226   0.15900   0.15608  -0.0671  0.0521  1.0000  -5.7658   0.0000   0.2257
  26.500   1.6126   0.16634   0.16351  -0.0713  0.0501  1.0000  -5.8658   0.0000   0.2269
  27.000   1.5950   0.17481   0.17205  -0.0765  0.0468  1.0000  -5.9254   0.0000   0.2288
  27.500   1.5852   0.18219   0.17950  -0.0814  0.0443  1.0000  -6.0176   0.0000   0.2303
  28.000   1.5775   0.18925   0.18659  -0.0863  0.0405  1.0000  -6.1228   0.0000   0.2319
  28.500   1.5604   0.19787   0.19526  -0.0924  0.0366  1.0000  -6.1735   0.0000   0.2345
  29.000   1.5421   0.20680   0.20424  -0.0990  0.0321  1.0000  -6.2094   0.0000   0.2375
  29.500   1.5204   0.21640   0.21387  -0.1062  0.0268  1.0000  -6.2159   0.0000   0.2413
  30.000   1.5008   0.22563   0.22314  -0.1135  0.0225  1.0000  -6.2248   0.0000   0.2451
  30.500   1.4828   0.23470   0.23225  -0.1208  0.0187  1.0000  -6.2329   0.0000   0.2490
  31.000   1.4661   0.24370   0.24130  -0.1283  0.0149  1.0000  -6.2383   0.0000   0.2530
  31.500   1.4428   0.25416   0.25176  -0.1368  0.0098  1.0000  -6.1840   0.0000   0.2584
  32.000   1.4298   0.26266   0.26032  -0.1442  0.0078  1.0000  -6.1914   0.0000   0.2624
  32.500   1.4292   0.26859   0.26628  -0.1501  0.0069  1.0000  -6.2887   0.0000   0.2644
  33.000   1.4219   0.27590   0.27366  -0.1569  0.0063  1.0000  -6.3264   0.0000   0.2677
  33.500   1.4168   0.28270   0.28054  -0.1635  0.0059  1.0000  -6.3759   0.0000   0.2705
  34.000   1.4196   0.28767   0.28556  -0.1690  0.0057  1.0000  -6.4938   0.0000   0.2719
  34.500   1.4156   0.29410   0.29206  -0.1755  0.0054  1.0000  -6.5452   0.0000   0.2746
  35.000   1.4116   0.30050   0.29852  -0.1820  0.0051  1.0000  -6.5938   0.0000   0.2773
  35.500   1.4101   0.30623   0.30429  -0.1882  0.0047  1.0000  -6.6694   0.0000   0.2794
  36.000   1.4078   0.31202   0.31015  -0.1945  0.0045  1.0000  -6.7341   0.0000   0.2817
  36.500   1.4111   0.31630   0.31448  -0.1999  0.0044  1.0000  -6.8611   0.0000   0.2827
  37.000   1.4095   0.32174   0.31997  -0.2061  0.0042  1.0000  -6.9285   0.0000   0.2847
  37.500   1.4101   0.32650   0.32478  -0.2119  0.0040  1.0000  -7.0270   0.0000   0.2861
  38.000   1.4087   0.33163   0.32996  -0.2181  0.0038  0.9999  -7.1036   0.0000   0.2880
  38.500   1.4049   0.33739   0.33576  -0.2246  0.0035  0.9999  -7.1535   0.0000   0.2904
  39.000   1.4059   0.34167   0.34008  -0.2303  0.0033  0.9999  -7.2689   0.0000   0.2916
  39.500   1.4059   0.34608   0.34454  -0.2361  0.0032  0.9999  -7.3708   0.0000   0.2929
  40.000   1.4084   0.34964   0.34813  -0.2416  0.0031  0.9999  -7.5110   0.0000   0.2935
  40.500   1.4102   0.35328   0.35180  -0.2471  0.0030  0.9999  -7.6430   0.0000   0.2941
  41.000   1.4089   0.35763   0.35620  -0.2530  0.0029  0.9999  -7.7263   0.0000   0.2955
  41.500   1.4098   0.36119   0.35978  -0.2586  0.0027  0.9999  -7.8468   0.0000   0.2962
  42.000   1.4070   0.36540   0.36402  -0.2648  0.0025  0.9998  -7.8999   0.0000   0.2978
  42.500   1.4079   0.36804   0.36667  -0.2703  0.0023  0.9998  -8.0199   0.0000   0.2983
  43.000   1.4081   0.37055   0.36923  -0.2759  0.0022  0.9998  -8.1291   0.0000   0.2989
  43.500   1.4086   0.37269   0.37140  -0.2814  0.0022  0.9998  -8.2463   0.0000   0.2993
  44.000   1.4097   0.37444   0.37319  -0.2868  0.0021  0.9998  -8.3812   0.0000   0.2994
  44.500   1.4079   0.37681   0.37560  -0.2926  0.0020  0.9998  -8.4576   0.0000   0.3002
  45.000   1.4078   0.37859   0.37740  -0.2981  0.0019  0.9998  -8.5756   0.0000   0.3003
  45.500   1.4057   0.38082   0.37966  -0.3039  0.0017  0.9997  -8.6588   0.0000   0.3010


