xflr5 v6.33

 Calculated polar for: Bell A821201 v4

 1 1 Reynolds number fixed          Mach number fixed         

 xtrf =   1.000 (top)        1.000 (bottom)
 Mach =   0.000     Re =     0.800 e 6     Ncrit =   9.000

  alpha     CL        CD       CDp       Cm    Top Xtr Bot Xtr   Cpmin    Chinge    XCp    
 ------- -------- --------- --------- -------- ------- ------- -------- --------- ---------
 -29.000  -0.3651   0.24728   0.24544   0.0067  1.0000  0.0112  -1.0376   0.0000   0.2222
 -28.500  -0.3558   0.24387   0.24204   0.0044  1.0000  0.0115  -1.0035   0.0000   0.2164
 -28.000  -0.3468   0.24025   0.23841   0.0021  1.0000  0.0121  -0.9823   0.0000   0.2101
 -27.500  -0.3383   0.23624   0.23440  -0.0002  1.0000  0.0128  -0.9837   0.0000   0.2032
 -27.000  -0.3353   0.23018   0.22833  -0.0031  1.0000  0.0137  -1.1487   0.0000   0.1936
 -26.500  -0.3321   0.22482   0.22297  -0.0058  1.0000  0.0138  -1.2786   0.0000   0.1847
 -26.000  -0.3188   0.22165   0.21980  -0.0073  1.0000  0.0140  -1.1874   0.0000   0.1790
 -25.500  -0.3077   0.21847   0.21664  -0.0092  1.0000  0.0142  -1.1286   0.0000   0.1718
 -25.000  -0.2973   0.21510   0.21328  -0.0112  1.0000  0.0146  -1.0880   0.0000   0.1636
 -24.500  -0.2876   0.21144   0.20962  -0.0133  1.0000  0.0152  -1.0682   0.0000   0.1546
 -24.000  -0.2855   0.20550   0.20367  -0.0162  1.0000  0.0168  -1.2247   0.0000   0.1430
 -23.000  -0.2590   0.19516   0.19333  -0.0235  0.9989  0.0172  -1.2680   0.0000   0.1058
 -22.500  -0.2297   0.18856   0.18672  -0.0310  0.9906  0.0175  -1.1919   0.0000   0.0565
 -22.000  -0.1853   0.17939   0.17746  -0.0446  0.9298  0.0183  -1.1391   0.0000  -0.0615
 -21.500  -0.4398   0.22472   0.22261  -0.0076  1.0000  0.0178  -1.8811   0.0000   0.1674
 -21.000  -0.4082   0.21731   0.21519  -0.0158  0.9988  0.0188  -1.8298   0.0000   0.1438
 -20.500  -0.3877   0.20280   0.20065  -0.0286  0.9961  0.0205  -2.1515   0.0000   0.1067
 -20.000  -0.3556   0.19645   0.19431  -0.0345  0.9878  0.0208  -2.0183   0.0000   0.0806
 -19.500  -0.2830   0.18485   0.18256  -0.0543  0.9126  0.0215  -1.8802   0.0000  -0.0285
 -18.500  -0.3471   0.13814   0.13511  -0.0779  0.7934  0.0190  -3.7145   0.0000  -0.0501
 -18.000  -0.3053   0.13836   0.13500  -0.0803  0.7073  0.0209  -3.2414   0.0000  -0.0936
 -17.500  -0.2873   0.13325   0.12965  -0.0840  0.6663  0.0215  -3.1016   0.0000  -0.1249
 -17.000  -0.2806   0.12549   0.12183  -0.0888  0.6532  0.0249  -3.0513   0.0000  -0.1488
 -16.500  -0.6870   0.05319   0.04751  -0.1171  0.7462  0.0169  -6.5787   0.0000   0.0372
 -16.000  -0.6674   0.05001   0.04391  -0.1173  0.6763  0.0171  -6.4043   0.0000   0.0324
 -15.500  -0.6444   0.04710   0.04078  -0.1177  0.6556  0.0172  -6.1998   0.0000   0.0260
 -15.000  -0.6200   0.04440   0.03796  -0.1179  0.6455  0.0174  -5.9786   0.0000   0.0189
 -14.500  -0.5925   0.04191   0.03534  -0.1184  0.6362  0.0175  -5.7403   0.0000   0.0093
 -14.000  -0.5659   0.03943   0.03279  -0.1186  0.6313  0.0177  -5.5043   0.0000  -0.0003
 -13.500  -0.5371   0.03715   0.03044  -0.1189  0.6265  0.0179  -5.2601   0.0000  -0.0120
 -13.000  -0.5052   0.03498   0.02819  -0.1196  0.6220  0.0181  -5.0076   0.0000  -0.0276
 -12.500  -0.4699   0.03281   0.02593  -0.1209  0.6177  0.0183  -4.7488   0.0000  -0.0489
 -12.000  -0.4291   0.03085   0.02388  -0.1230  0.6129  0.0186  -4.4762   0.0000  -0.0796
 -11.500  -0.3958   0.02899   0.02196  -0.1233  0.6104  0.0189  -4.2308   0.0000  -0.1055
 -11.000  -0.3649   0.02724   0.02017  -0.1230  0.6085  0.0193  -3.9951   0.0000  -0.1320
 -10.500  -0.3325   0.02569   0.01857  -0.1225  0.6063  0.0198  -3.7558   0.0000  -0.1647
 -10.000  -0.3002   0.02422   0.01705  -0.1219  0.6039  0.0202  -3.5207   0.0000  -0.2038
  -9.500  -0.2769   0.02244   0.01525  -0.1201  0.6015  0.0209  -3.3271   0.0000  -0.2324
  -9.000  -0.2499   0.02099   0.01378  -0.1182  0.5988  0.0218  -3.1155   0.0000  -0.2732
  -8.500  -0.2218   0.01970   0.01245  -0.1162  0.5964  0.0230  -2.9078   0.0000  -0.3263
  -8.000  -0.1966   0.01838   0.01110  -0.1136  0.5938  0.0247  -2.7433   0.0000  -0.3825
  -7.500  -0.1721   0.01712   0.00983  -0.1108  0.5909  0.0282  -2.5806   0.0000  -0.4511
  -7.000  -0.1596   0.01556   0.00832  -0.1064  0.5881  0.0399  -2.4509   0.0000  -0.4730
  -6.500  -0.1711   0.01392   0.00682  -0.0970  0.5870  0.0680  -2.3638   0.0000  -0.3654
  -6.000  -0.1739   0.01315   0.00621  -0.0869  0.5854  0.1022  -2.2457   0.0000  -0.2932
  -5.500  -0.1601   0.01222   0.00557  -0.0798  0.5837  0.1640  -2.0885   0.0000  -0.2912
  -5.000  -0.1465   0.01101   0.00483  -0.0726  0.5816  0.2720  -1.9325   0.0000  -0.2879
  -4.500  -0.1372   0.00948   0.00396  -0.0644  0.5788  0.4370  -1.7867   0.0000  -0.2598
  -4.000  -0.0969   0.00925   0.00396  -0.0611  0.5745  0.5227  -1.5744   0.0000  -0.4290
  -3.500  -0.0441   0.00944   0.00409  -0.0601  0.5700  0.5444  -1.3433   0.0000  -1.2014
  -3.000   0.0137   0.01004   0.00462  -0.0602  0.5651  0.5596  -1.1118   0.0000   4.8708
  -2.500   0.0680   0.01041   0.00509  -0.0592  0.5634  0.5742  -0.8963   0.0000   1.1558
  -2.000   0.1210   0.01084   0.00549  -0.0581  0.5600  0.5826  -0.8852   0.0000   0.7431
  -1.500   0.1722   0.01058   0.00521  -0.0570  0.5562  0.5880  -0.9341   0.0000   0.5861
  -1.000   0.2264   0.01055   0.00515  -0.0565  0.5523  0.5910  -0.9851   0.0000   0.4999
  -0.500   0.2806   0.01060   0.00517  -0.0560  0.5486  0.5945  -1.0364   0.0000   0.4469
   0.000   0.3378   0.01075   0.00524  -0.0564  0.5432  0.5967  -1.0926   0.0000   0.4121
   0.500   0.3864   0.01060   0.00508  -0.0548  0.5399  0.5986  -1.1442   0.0000   0.3854
   1.000   0.4344   0.01047   0.00494  -0.0531  0.5352  0.6006  -1.2052   0.0000   0.3645
   1.500   0.4804   0.01028   0.00471  -0.0510  0.5287  0.6020  -1.2655   0.0000   0.3472
   2.000   0.5283   0.01025   0.00459  -0.0494  0.5211  0.6032  -1.3274   0.0000   0.3335
   2.500   0.5709   0.01012   0.00449  -0.0466  0.5153  0.6045  -1.3860   0.0000   0.3207
   3.000   0.6097   0.00999   0.00434  -0.0430  0.5070  0.6054  -1.4450   0.0000   0.3088
   3.500   0.6508   0.00994   0.00426  -0.0401  0.4975  0.6063  -1.5065   0.0000   0.2989
   4.000   0.6910   0.00984   0.00410  -0.0371  0.4832  0.6088  -1.5677   0.0000   0.2901
   4.500   0.7288   0.00997   0.00417  -0.0337  0.4622  0.6108  -1.6273   0.0000   0.2819
   5.000   0.7664   0.01029   0.00440  -0.0304  0.4361  0.6127  -1.6866   0.0000   0.2746
   5.500   0.8017   0.01077   0.00478  -0.0269  0.4119  0.6148  -1.7542   0.0000   0.2677
   6.000   0.8395   0.01131   0.00524  -0.0242  0.3913  0.6165  -1.8252   0.0000   0.2621
   6.500   0.8802   0.01188   0.00576  -0.0222  0.3735  0.6182  -1.8991   0.0000   0.2578
   7.000   0.9232   0.01252   0.00635  -0.0210  0.3573  0.6199  -1.9755   0.0000   0.2545
   7.500   0.9671   0.01327   0.00707  -0.0203  0.3427  0.6217  -2.0528   0.0000   0.2520
   8.000   1.0156   0.01403   0.00782  -0.0206  0.3301  0.6235  -2.1350   0.0000   0.2506
   8.500   1.0657   0.01486   0.00866  -0.0216  0.3188  0.6253  -2.2190   0.0000   0.2498
   9.000   1.1106   0.01613   0.00990  -0.0225  0.3055  0.6270  -2.3035   0.0000   0.2489
   9.500   1.1611   0.01718   0.01099  -0.0242  0.2952  0.6285  -2.4085   0.0000   0.2487
  10.000   1.2125   0.01881   0.01263  -0.0273  0.2838  0.6307  -2.5139   0.0000   0.2495
  10.500   1.2590   0.02072   0.01459  -0.0301  0.2730  0.6348  -2.6140   0.0000   0.2499
  11.000   1.2937   0.02283   0.01677  -0.0308  0.2640  0.6380  -2.7004   0.0000   0.2488
  11.500   1.3205   0.02535   0.01934  -0.0308  0.2551  0.6411  -2.7766   0.0000   0.2472
  12.000   1.3445   0.02804   0.02210  -0.0305  0.2472  0.6442  -2.8533   0.0000   0.2455
  12.500   1.3676   0.03082   0.02494  -0.0302  0.2394  0.6473  -2.9291   0.0000   0.2438
  13.000   1.3833   0.03411   0.02827  -0.0296  0.2312  0.6503  -2.9974   0.0000   0.2419
  13.500   1.4044   0.03698   0.03120  -0.0292  0.2243  0.6529  -3.0821   0.0000   0.2401
  14.000   1.4158   0.04084   0.03509  -0.0289  0.2156  0.6585  -3.1548   0.0000   0.2385
  14.500   1.4394   0.04367   0.03805  -0.0290  0.2092  0.6642  -3.2514   0.0000   0.2371
  15.000   1.4493   0.04765   0.04205  -0.0285  0.2012  0.6698  -3.3240   0.0000   0.2354
  15.500   1.4692   0.05081   0.04532  -0.0285  0.1956  0.6754  -3.4193   0.0000   0.2339
  16.000   1.4846   0.05451   0.04909  -0.0286  0.1886  0.6843  -3.5093   0.0000   0.2326
  16.500   1.4974   0.05851   0.05321  -0.0288  0.1825  0.6945  -3.5955   0.0000   0.2313
  17.000   1.5158   0.06203   0.05684  -0.0292  0.1762  0.7080  -3.6949   0.0000   0.2301
  17.500   1.5206   0.06702   0.06193  -0.0296  0.1693  0.7267  -3.7687   0.0000   0.2289
  18.000   1.5398   0.07071   0.06584  -0.0306  0.1639  0.7621  -3.8730   0.0000   0.2280
  18.500   1.5463   0.07637   0.07194  -0.0325  0.1566  0.8966  -3.9467   0.0000   0.2278
  19.000   1.5691   0.08185   0.07758  -0.0357  0.1514  1.0000  -4.0541   0.0000   0.2282
  19.500   1.5650   0.08806   0.08382  -0.0365  0.1453  1.0000  -4.1057   0.0000   0.2274
  20.000   1.5690   0.09338   0.08923  -0.0374  0.1401  1.0000  -4.1744   0.0000   0.2265
  20.500   1.5652   0.09973   0.09566  -0.0387  0.1343  1.0000  -4.2234   0.0000   0.2260
  21.000   1.5587   0.10652   0.10254  -0.0403  0.1289  1.0000  -4.2661   0.0000   0.2257
  21.500   1.5557   0.11294   0.10905  -0.0422  0.1238  1.0000  -4.3173   0.0000   0.2254
  22.000   1.5434   0.12061   0.11678  -0.0445  0.1183  1.0000  -4.3410   0.0000   0.2257
  22.500   1.5411   0.12704   0.12332  -0.0469  0.1136  1.0000  -4.4108   0.0000   0.2257
  23.000   1.5289   0.13481   0.13110  -0.0500  0.1082  1.0000  -4.4977   0.0000   0.2264
  23.500   1.5265   0.14129   0.13772  -0.0529  0.1043  1.0000  -4.6198   0.0000   0.2269
  24.000   1.5135   0.14930   0.14577  -0.0567  0.0991  1.0000  -4.7040   0.0000   0.2281
  24.500   1.5113   0.15583   0.15242  -0.0602  0.0951  1.0000  -4.8294   0.0000   0.2288
  25.000   1.5059   0.16281   0.15945  -0.0642  0.0906  1.0000  -4.9397   0.0000   0.2300
  25.500   1.5018   0.16959   0.16633  -0.0683  0.0867  1.0000  -5.0526   0.0000   0.2312
  26.000   1.4955   0.17673   0.17353  -0.0729  0.0826  1.0000  -5.1533   0.0000   0.2327
  26.500   1.4947   0.18297   0.17983  -0.0772  0.0789  1.0000  -5.2780   0.0000   0.2339
  27.000   1.4914   0.18966   0.18661  -0.0819  0.0754  1.0000  -5.3876   0.0000   0.2354
  27.500   1.4889   0.19617   0.19314  -0.0868  0.0720  1.0000  -5.4991   0.0000   0.2370
  28.000   1.4888   0.20229   0.19938  -0.0916  0.0690  1.0000  -5.6207   0.0000   0.2384
  28.500   1.4838   0.20917   0.20626  -0.0970  0.0654  1.0000  -5.7149   0.0000   0.2404
  29.000   1.4834   0.21528   0.21250  -0.1022  0.0624  1.0000  -5.8378   0.0000   0.2420
  29.500   1.4786   0.22204   0.21927  -0.1079  0.0590  1.0000  -5.9346   0.0000   0.2442
  30.000   1.4762   0.22840   0.22576  -0.1135  0.0560  1.0000  -6.0413   0.0000   0.2462
  30.500   1.4733   0.23478   0.23215  -0.1192  0.0527  1.0000  -6.1436   0.0000   0.2483
  31.000   1.4679   0.24168   0.23917  -0.1254  0.0496  1.0000  -6.2237   0.0000   0.2508
  31.500   1.4626   0.24851   0.24602  -0.1317  0.0462  1.0000  -6.3014   0.0000   0.2533
  32.000   1.4562   0.25555   0.25315  -0.1383  0.0425  1.0000  -6.3653   0.0000   0.2562
  32.500   1.4470   0.26319   0.26085  -0.1453  0.0384  1.0000  -6.4005   0.0000   0.2596
  33.000   1.4353   0.27137   0.26907  -0.1528  0.0337  1.0000  -6.4069   0.0000   0.2635
  33.500   1.4192   0.28058   0.27827  -0.1611  0.0282  1.0000  -6.3642   0.0000   0.2685
  34.000   1.4022   0.29012   0.28782  -0.1696  0.0225  1.0000  -6.2938   0.0000   0.2739
  34.500   1.3865   0.29959   0.29727  -0.1781  0.0174  1.0000  -6.2176   0.0000   0.2793
  35.000   1.3761   0.30780   0.30546  -0.1859  0.0139  1.0000  -6.1830   0.0000   0.2837
  35.500   1.3727   0.31431   0.31198  -0.1926  0.0120  1.0000  -6.2121   0.0000   0.2866
  36.000   1.3738   0.31952   0.31718  -0.1986  0.0109  1.0000  -6.2882   0.0000   0.2884
  36.500   1.3757   0.32436   0.32206  -0.2044  0.0100  1.0000  -6.3737   0.0000   0.2900
  37.000   1.3806   0.32820   0.32587  -0.2098  0.0093  1.0000  -6.5097   0.0000   0.2907
  37.500   1.3851   0.33210   0.32981  -0.2151  0.0088  1.0000  -6.6392   0.0000   0.2914
  38.000   1.3881   0.33618   0.33395  -0.2207  0.0083  1.0000  -6.7533   0.0000   0.2924
  38.500   1.3927   0.33964   0.33741  -0.2260  0.0079  1.0000  -6.9052   0.0000   0.2929
  39.000   1.4014   0.34174   0.33948  -0.2306  0.0075  1.0000  -7.1186   0.0000   0.2921
  39.500   1.4027   0.34595   0.34378  -0.2364  0.0072  1.0000  -7.2227   0.0000   0.2932
  40.000   1.4044   0.34984   0.34774  -0.2421  0.0069  1.0000  -7.3354   0.0000   0.2941
  40.500   1.4062   0.35352   0.35147  -0.2477  0.0065  1.0000  -7.4542   0.0000   0.2949
  41.000   1.4112   0.35602   0.35397  -0.2528  0.0062  1.0000  -7.6318   0.0000   0.2947
  41.500   1.4164   0.35814   0.35610  -0.2577  0.0059  1.0000  -7.8103   0.0000   0.2943
  42.000   1.4098   0.36351   0.36162  -0.2647  0.0057  1.0000  -7.7783   0.0000   0.2970
  42.500   1.4016   0.36901   0.36726  -0.2719  0.0053  1.0000  -7.7014   0.0000   0.3002
  43.000   1.3978   0.37290   0.37121  -0.2783  0.0050  1.0000  -7.7060   0.0000   0.3021
  43.500   1.4011   0.37443   0.37275  -0.2835  0.0048  1.0000  -7.8692   0.0000   0.3018
  45.000   0.7166   0.45893   0.45799  -0.1744  0.0008  1.0000  -1.2512   0.0000   0.3959
  45.500   0.7135   0.47037   0.46944  -0.1763  0.0006  1.0000  -1.0090   0.0000   0.3982
  46.000   0.7109   0.47422   0.47330  -0.1785  0.0004  1.0000  -0.9922   0.0000   0.3996
  46.500   0.7081   0.47684   0.47594  -0.1808  0.0004  1.0000  -1.0053   0.0000   0.4009
  47.000   0.7050   0.47844   0.47755  -0.1830  0.0003  1.0000  -1.0485   0.0000   0.4021
  47.500   0.7018   0.47895   0.47808  -0.1852  0.0003  1.0000  -1.1164   0.0000   0.4030
  48.000   0.6977   0.48525   0.48439  -0.1871  0.0003  1.0000  -1.0380   0.0000   0.4048
  48.500   0.6939   0.49192   0.49107  -0.1887  0.0002  1.0000  -0.9408   0.0000   0.4064
  49.000   0.6898   0.49443   0.49359  -0.1906  0.0001  1.0000  -0.9360   0.0000   0.4077
  49.500   0.6853   0.49615   0.49533  -0.1924  0.0001  1.0000  -0.9420   0.0000   0.4090
  50.000   0.6806   0.49719   0.49638  -0.1943  0.0001  1.0000  -0.9562   0.0000   0.4102


