xflr5 v6.33

 Calculated polar for: Bell A821201 v4

 1 1 Reynolds number fixed          Mach number fixed         

 xtrf =   1.000 (top)        1.000 (bottom)
 Mach =   0.000     Re =     0.400 e 6     Ncrit =   9.000

  alpha     CL        CD       CDp       Cm    Top Xtr Bot Xtr   Cpmin    Chinge    XCp    
 ------- -------- --------- --------- -------- ------- ------- -------- --------- ---------
 -28.000  -0.3426   0.24126   0.23866   0.0012  1.0000  0.0185  -0.9178   0.0000   0.2074
 -27.500  -0.3342   0.23706   0.23446  -0.0012  1.0000  0.0195  -0.9285   0.0000   0.2000
 -27.000  -0.3331   0.23158   0.22896  -0.0046  1.0000  0.0202  -1.0877   0.0000   0.1889
 -26.500  -0.3215   0.22744   0.22483  -0.0064  1.0000  0.0204  -1.0531   0.0000   0.1824
 -26.000  -0.3096   0.22410   0.22150  -0.0083  1.0000  0.0208  -0.9946   0.0000   0.1755
 -25.500  -0.2992   0.22054   0.21795  -0.0103  1.0000  0.0215  -0.9694   0.0000   0.1672
 -25.000  -0.2900   0.21658   0.21400  -0.0125  1.0000  0.0225  -0.9728   0.0000   0.1580
 -24.500  -0.2932   0.21094   0.20834  -0.0163  1.0000  0.0238  -1.1819   0.0000   0.1447
 -24.000  -0.2784   0.20696   0.20438  -0.0176  1.0000  0.0240  -1.1054   0.0000   0.1364
 -23.500  -0.2656   0.20368   0.20112  -0.0191  1.0000  0.0245  -1.0382   0.0000   0.1267
 -23.000  -0.2550   0.20014   0.19760  -0.0209  1.0000  0.0252  -1.0173   0.0000   0.1156
 -22.500  -0.2458   0.19622   0.19369  -0.0229  1.0000  0.0264  -1.0289   0.0000   0.1033
 -22.000  -0.2494   0.19031   0.18779  -0.0265  1.0000  0.0278  -1.2341   0.0000   0.0898
 -21.500  -0.2330   0.18714   0.18465  -0.0274  1.0000  0.0282  -1.1382   0.0000   0.0768
 -21.000  -0.2212   0.18382   0.18136  -0.0288  1.0000  0.0289  -1.0953   0.0000   0.0623
 -20.500  -0.2121   0.18002   0.17759  -0.0306  1.0000  0.0302  -1.0924   0.0000   0.0466
 -20.000  -0.3858   0.21007   0.20716  -0.0184  1.0000  0.0300  -1.6815   0.0000   0.1358
 -19.500  -0.3908   0.19965   0.19676  -0.0245  1.0000  0.0320  -1.9689   0.0000   0.1229
 -19.000  -0.3687   0.19579   0.19295  -0.0254  1.0000  0.0324  -1.8336   0.0000   0.1159
 -18.500  -0.3517   0.19109   0.18829  -0.0271  1.0000  0.0332  -1.7640   0.0000   0.1070
 -18.000  -0.3230   0.18222   0.17942  -0.0357  0.9979  0.0352  -1.7754   0.0000   0.0704
 -17.500  -0.3072   0.16997   0.16719  -0.0445  0.9771  0.0370  -1.9073   0.0000   0.0345
 -17.000  -0.2452   0.14823   0.14519  -0.0748  0.8771  0.0413  -2.1265   0.0000  -0.1422
 -16.500  -0.1744   0.14134   0.13745  -0.0883  0.7615  0.0421  -1.8860   0.0000  -0.3735
 -16.000  -0.1560   0.13514   0.13108  -0.0922  0.7236  0.0436  -1.8419   0.0000  -0.4683
 -15.000  -0.6016   0.04619   0.03969  -0.1260  0.7788  0.0244  -5.4901   0.0000  -0.0007
 -14.500  -0.5637   0.04331   0.03645  -0.1284  0.7341  0.0246  -5.2666   0.0000  -0.0196
 -14.000  -0.5272   0.04094   0.03380  -0.1294  0.7032  0.0249  -5.0381   0.0000  -0.0380
 -13.500  -0.4892   0.03893   0.03156  -0.1299  0.6870  0.0252  -4.8018   0.0000  -0.0592
 -13.000  -0.4483   0.03717   0.02961  -0.1306  0.6760  0.0256  -4.5566   0.0000  -0.0865
 -12.500  -0.4078   0.03556   0.02789  -0.1310  0.6681  0.0261  -4.3109   0.0000  -0.1182
 -12.000  -0.3664   0.03404   0.02622  -0.1316  0.6617  0.0269  -4.0657   0.0000  -0.1587
 -11.500  -0.3238   0.03261   0.02464  -0.1324  0.6563  0.0275  -3.8242   0.0000  -0.2118
 -11.000  -0.2893   0.03116   0.02322  -0.1315  0.6525  0.0282  -3.6113   0.0000  -0.2605
 -10.500  -0.2588   0.02955   0.02163  -0.1307  0.6486  0.0292  -3.4029   0.0000  -0.3141
 -10.000  -0.2289   0.02801   0.02007  -0.1298  0.6450  0.0304  -3.2020   0.0000  -0.3794
  -9.500  -0.2008   0.02649   0.01847  -0.1285  0.6414  0.0320  -3.0130   0.0000  -0.4569
  -9.000  -0.1772   0.02485   0.01681  -0.1268  0.6374  0.0343  -2.8356   0.0000  -0.5365
  -8.500  -0.1538   0.02332   0.01527  -0.1248  0.6341  0.0382  -2.6957   0.0000  -0.6373
  -8.000  -0.1404   0.02166   0.01370  -0.1208  0.6321  0.0473  -2.5826   0.0000  -0.6871
  -7.500  -0.1429   0.01955   0.01186  -0.1148  0.6297  0.0827  -2.5025   0.0000  -0.6233
  -7.000  -0.1543   0.01730   0.00988  -0.1074  0.6272  0.1305  -2.4218   0.0000  -0.5056
  -6.500  -0.1803   0.01551   0.00830  -0.0960  0.6240  0.1778  -2.3637   0.0000  -0.3295
  -6.000  -0.1994   0.01427   0.00742  -0.0838  0.6211  0.2587  -2.2832   0.0000  -0.2095
  -5.500  -0.2091   0.01260   0.00641  -0.0730  0.6185  0.4076  -2.1795   0.0000  -0.1333
  -5.000  -0.1749   0.01277   0.00697  -0.0684  0.6156  0.5251  -1.9721   0.0000  -0.1778
  -4.500  -0.1211   0.01363   0.00774  -0.0676  0.6114  0.5509  -1.7273   0.0000  -0.3544
  -4.000  -0.0657   0.01455   0.00870  -0.0665  0.6087  0.5712  -1.4846   0.0000  -0.8339
  -3.500  -0.0115   0.01534   0.00949  -0.0652  0.6037  0.5870  -1.2535   0.0000  -5.7561
  -3.000   0.0542   0.01655   0.01077  -0.0657  0.5986  0.6001  -1.0088   0.0000   1.5209
  -2.500   0.1054   0.01662   0.01070  -0.0647  0.5941  0.6080  -0.8522   0.0000   0.8869
  -2.000   0.1654   0.01707   0.01111  -0.0652  0.5894  0.6130  -0.9058   0.0000   0.6540
  -1.500   0.2165   0.01717   0.01122  -0.0641  0.5852  0.6175  -0.9542   0.0000   0.5501
  -1.000   0.2640   0.01703   0.01105  -0.0625  0.5798  0.6224  -1.0011   0.0000   0.4870
  -0.500   0.3115   0.01672   0.01063  -0.0612  0.5745  0.6255  -1.0493   0.0000   0.4439
   0.000   0.3632   0.01657   0.01033  -0.0606  0.5694  0.6284  -1.1025   0.0000   0.4123
   0.500   0.4121   0.01648   0.01014  -0.0597  0.5641  0.6305  -1.1557   0.0000   0.3888
   1.000   0.4545   0.01600   0.00970  -0.0572  0.5587  0.6327  -1.2124   0.0000   0.3684
   1.500   0.5024   0.01570   0.00938  -0.0556  0.5519  0.6352  -1.2740   0.0000   0.3522
   2.000   0.5553   0.01544   0.00903  -0.0551  0.5456  0.6372  -1.3400   0.0000   0.3396
   2.500   0.5973   0.01521   0.00880  -0.0524  0.5378  0.6391  -1.3981   0.0000   0.3272
   3.000   0.6388   0.01484   0.00842  -0.0496  0.5292  0.6411  -1.4591   0.0000   0.3161
   3.500   0.6870   0.01460   0.00807  -0.0481  0.5213  0.6438  -1.5268   0.0000   0.3077
   4.000   0.7163   0.01428   0.00784  -0.0429  0.5113  0.6457  -1.5793   0.0000   0.2966
   4.500   0.7510   0.01397   0.00742  -0.0386  0.5011  0.6476  -1.6370   0.0000   0.2874
   5.000   0.7713   0.01374   0.00724  -0.0316  0.4870  0.6494  -1.6829   0.0000   0.2760
   5.500   0.7957   0.01376   0.00721  -0.0256  0.4697  0.6510  -1.7420   0.0000   0.2663
   6.000   0.8177   0.01404   0.00738  -0.0195  0.4486  0.6527  -1.7990   0.0000   0.2569
   6.500   0.8412   0.01445   0.00766  -0.0141  0.4272  0.6551  -1.8568   0.0000   0.2489
   7.000   0.8682   0.01507   0.00820  -0.0098  0.4078  0.6573  -1.9171   0.0000   0.2426
   7.500   0.8982   0.01584   0.00895  -0.0066  0.3907  0.6594  -1.9799   0.0000   0.2377
   8.000   0.9300   0.01679   0.00987  -0.0041  0.3748  0.6617  -2.0439   0.0000   0.2340
   8.500   0.9634   0.01795   0.01100  -0.0026  0.3603  0.6642  -2.1090   0.0000   0.2314
   9.000   0.9985   0.01933   0.01234  -0.0020  0.3468  0.6668  -2.1752   0.0000   0.2298
   9.500   1.0389   0.02075   0.01384  -0.0027  0.3350  0.6696  -2.2598   0.0000   0.2295
  10.000   1.0758   0.02254   0.01560  -0.0034  0.3234  0.6728  -2.3449   0.0000   0.2292
  10.500   1.1125   0.02448   0.01760  -0.0045  0.3121  0.6757  -2.4300   0.0000   0.2292
  11.000   1.1547   0.02665   0.01983  -0.0074  0.3004  0.6790  -2.5209   0.0000   0.2305
  11.500   1.1937   0.02906   0.02227  -0.0100  0.2893  0.6830  -2.6083   0.0000   0.2315
  12.000   1.2316   0.03148   0.02483  -0.0123  0.2797  0.6871  -2.6961   0.0000   0.2321
  12.500   1.2634   0.03416   0.02749  -0.0139  0.2697  0.6915  -2.7800   0.0000   0.2321
  13.000   1.2938   0.03688   0.03035  -0.0152  0.2616  0.6963  -2.8635   0.0000   0.2318
  13.500   1.3203   0.03970   0.03318  -0.0161  0.2531  0.7012  -2.9480   0.0000   0.2311
  14.000   1.3491   0.04259   0.03624  -0.0175  0.2452  0.7080  -3.0431   0.0000   0.2308
  14.500   1.3706   0.04587   0.03960  -0.0182  0.2371  0.7155  -3.1325   0.0000   0.2299
  15.000   1.3927   0.04895   0.04277  -0.0186  0.2294  0.7239  -3.2234   0.0000   0.2289
  15.500   1.4117   0.05268   0.04667  -0.0197  0.2214  0.7352  -3.3112   0.0000   0.2282
  16.000   1.4307   0.05620   0.05028  -0.0204  0.2136  0.7502  -3.4017   0.0000   0.2273
  16.500   1.4481   0.06022   0.05453  -0.0216  0.2065  0.7737  -3.4929   0.0000   0.2268
  17.000   1.4732   0.06380   0.05833  -0.0236  0.1990  0.8311  -3.5988   0.0000   0.2266
  17.500   1.5036   0.06964   0.06453  -0.0285  0.1919  1.0000  -3.7125   0.0000   0.2283
  18.000   1.5175   0.07347   0.06828  -0.0287  0.1849  1.0000  -3.8050   0.0000   0.2270
  18.500   1.5204   0.07899   0.07400  -0.0296  0.1790  1.0000  -3.8708   0.0000   0.2262
  19.000   1.5249   0.08422   0.07926  -0.0304  0.1727  1.0000  -3.9407   0.0000   0.2253
  19.500   1.5284   0.08961   0.08476  -0.0314  0.1666  1.0000  -4.0060   0.0000   0.2245
  20.000   1.5274   0.09571   0.09097  -0.0328  0.1604  1.0000  -4.0600   0.0000   0.2240
  20.500   1.5328   0.10085   0.09612  -0.0339  0.1546  1.0000  -4.1278   0.0000   0.2233
  21.000   1.5263   0.10783   0.10329  -0.0359  0.1491  1.0000  -4.1662   0.0000   0.2232
  21.500   1.5391   0.11182   0.10719  -0.0371  0.1430  1.0000  -4.2574   0.0000   0.2224
  22.000   1.5207   0.12069   0.11633  -0.0402  0.1380  1.0000  -4.2602   0.0000   0.2232
  22.500   1.5211   0.12671   0.12238  -0.0426  0.1325  1.0000  -4.3263   0.0000   0.2232
  23.000   1.5136   0.13394   0.12976  -0.0456  0.1274  1.0000  -4.4271   0.0000   0.2238
  23.500   1.5059   0.14133   0.13726  -0.0491  0.1223  1.0000  -4.5258   0.0000   0.2247
  24.000   1.5053   0.14753   0.14351  -0.0523  0.1172  1.0000  -4.6516   0.0000   0.2253
  24.500   1.4931   0.15576   0.15190  -0.0568  0.1121  1.0000  -4.7316   0.0000   0.2269
  25.000   1.5011   0.16053   0.15665  -0.0598  0.1073  1.0000  -4.8992   0.0000   0.2271
  25.500   1.4825   0.16986   0.16618  -0.0654  0.1024  1.0000  -4.9430   0.0000   0.2297
  26.000   1.5021   0.17256   0.16877  -0.0677  0.0981  1.0000  -5.1655   0.0000   0.2290
  26.500   1.4752   0.18344   0.17994  -0.0747  0.0940  1.0000  -5.1581   0.0000   0.2328
  27.000   1.4823   0.18837   0.18486  -0.0786  0.0901  1.0000  -5.3187   0.0000   0.2334
  27.500   1.4656   0.19751   0.19419  -0.0850  0.0861  1.0000  -5.3496   0.0000   0.2366
  28.000   1.4637   0.20407   0.20084  -0.0903  0.0824  1.0000  -5.4568   0.0000   0.2385
  28.500   1.4639   0.21012   0.20695  -0.0953  0.0790  1.0000  -5.5725   0.0000   0.2401
  29.000   1.4446   0.21992   0.21691  -0.1029  0.0748  1.0000  -5.5702   0.0000   0.2444
  29.500   1.4525   0.22443   0.22143  -0.1073  0.0713  1.0000  -5.7385   0.0000   0.2451
  30.000   1.4287   0.23520   0.23237  -0.1159  0.0670  1.0000  -5.6959   0.0000   0.2504
  30.500   1.4243   0.24213   0.23938  -0.1221  0.0635  1.0000  -5.7730   0.0000   0.2531
  31.500   1.3802   0.26379   0.26130  -0.1399  0.0542  1.0000  -5.6364   0.0000   0.2651
  32.000   1.4216   0.26069   0.25808  -0.1401  0.0525  1.0000  -6.0635   0.0000   0.2598
  32.500   1.3941   0.27280   0.27034  -0.1500  0.0473  1.0000  -5.9305   0.0000   0.2670
  33.000   1.3787   0.28238   0.27999  -0.1584  0.0422  1.0000  -5.8770   0.0000   0.2724
  33.500   1.3736   0.28961   0.28726  -0.1654  0.0374  1.0000  -5.9038   0.0000   0.2758
  34.000   1.3752   0.29512   0.29274  -0.1714  0.0327  1.0000  -5.9900   0.0000   0.2777
  34.500   1.3680   0.30278   0.30038  -0.1788  0.0270  1.0000  -5.9849   0.0000   0.2816
  35.000   1.3695   0.30807   0.30559  -0.1848  0.0228  1.0000  -6.0658   0.0000   0.2835
  35.500   1.3716   0.31313   0.31060  -0.1907  0.0199  1.0000  -6.1472   0.0000   0.2852
  36.000   1.3776   0.31696   0.31437  -0.1959  0.0179  1.0000  -6.2761   0.0000   0.2858
  36.500   1.3812   0.32132   0.31875  -0.2015  0.0163  1.0000  -6.3879   0.0000   0.2870
  37.000   1.3825   0.32622   0.32370  -0.2075  0.0151  1.0000  -6.4631   0.0000   0.2886
  37.500   1.3843   0.33085   0.32837  -0.2134  0.0140  1.0000  -6.5468   0.0000   0.2900
  38.000   1.3983   0.33174   0.32919  -0.2172  0.0133  1.0000  -6.8130   0.0000   0.2882
  38.500   1.3472   0.35281   0.35068  -0.2319  0.0117  1.0000  -6.0299   0.0000   0.3039
  39.000   1.3735   0.34894   0.34671  -0.2335  0.0115  1.0000  -6.5543   0.0000   0.2982
  40.000   0.7268   0.41544   0.41391  -0.1500  0.0068  1.0000  -1.1142   0.0000   0.3816
  40.500   0.7279   0.41972   0.41821  -0.1527  0.0062  1.0000  -1.1495   0.0000   0.3829
  41.000   0.7300   0.42167   0.42020  -0.1553  0.0060  1.0000  -1.2501   0.0000   0.3830
  41.500   0.7271   0.43357   0.43211  -0.1580  0.0050  1.0000  -1.0950   0.0000   0.3867
  42.000   0.7273   0.43718   0.43574  -0.1606  0.0047  1.0000  -1.1454   0.0000   0.3878
  42.500   0.7266   0.44253   0.44111  -0.1632  0.0045  1.0000  -1.1479   0.0000   0.3892
  43.000   0.7248   0.45117   0.44977  -0.1656  0.0038  1.0000  -1.0534   0.0000   0.3915
  43.500   0.7239   0.45474   0.45336  -0.1681  0.0035  1.0000  -1.0857   0.0000   0.3927
  44.000   0.7233   0.45637   0.45502  -0.1706  0.0033  1.0000  -1.1676   0.0000   0.3933
  44.500   0.7202   0.46679   0.46545  -0.1728  0.0029  1.0000  -1.0001   0.0000   0.3960
  45.000   0.7182   0.47092   0.46960  -0.1751  0.0026  1.0000  -0.9949   0.0000   0.3974
  45.500   0.7160   0.47364   0.47234  -0.1775  0.0024  1.0000  -1.0201   0.0000   0.3986
  46.500   0.7103   0.48406   0.48280  -0.1817  0.0021  1.0000  -0.9084   0.0000   0.4017
  47.000   0.7072   0.48791   0.48666  -0.1838  0.0018  1.0000  -0.8933   0.0000   0.4030
  47.500   0.7038   0.49058   0.48935  -0.1859  0.0016  1.0000  -0.9067   0.0000   0.4043
  48.000   0.7002   0.49220   0.49099  -0.1880  0.0015  1.0000  -0.9373   0.0000   0.4055
  49.500   0.6875   0.50193   0.50078  -0.1935  0.0013  1.0000  -0.8728   0.0000   0.4096
  50.000   0.6829   0.50399   0.50286  -0.1953  0.0011  1.0000  -0.8617   0.0000   0.4109


