xflr5 v6.47

Plane name :        VTOL_SINGLE_TWIN_VERTICAL_EQUIVALENT_VTAIL_NACA_LAST
Polar name :        T5-a0.0°-30.0m/s-Panel_TG_Twin_Vertical_equiv1

   alpha      Beta       CL          CDi        CDv        CD         CY         Cl         Cm         Cn        Cni       QInf        XCP
    0.000   -18.000   0.106081   0.145623   0.029908   0.175531   1.028750   0.583949   0.190305   0.623841   0.617140   30.0000    -0.1153
    0.000   -17.500   0.104812   0.137614   0.029294   0.166908   1.001915   0.568660   0.181916   0.607503   0.601059   30.0000    -0.1066
    0.000   -17.000   0.103553   0.129842   0.028732   0.158575   0.974925   0.553292   0.173763   0.591078   0.584891   30.0000    -0.0979
    0.000   -16.500   0.102305   0.122308   0.028203   0.150511   0.947787   0.537849   0.165839   0.574573   0.568637   30.0000    -0.0893
    0.000   -16.000   0.101071   0.115009   0.027707   0.142716   0.920506   0.522331   0.158151   0.557981   0.552301   30.0000    -0.0807
    0.000   -15.500   0.099852   0.107946   0.027253   0.135198   0.893087   0.506743   0.150711   0.541309   0.535884   30.0000    -0.0722
    0.000   -15.000   0.098652   0.101116   0.026821   0.127936   0.865535   0.491084   0.143510   0.524564   0.519388   30.0000    -0.0636
    0.000   -14.500   0.097472   0.094518   0.026402   0.120921   0.837855   0.475359   0.136542   0.507746   0.502816   30.0000    -0.0552
    0.000   -14.000   0.096314   0.088153   0.025994   0.114147   0.810053   0.459569   0.129798   0.490855   0.486170   30.0000    -0.0468
    0.000   -13.500   0.095180   0.082019   0.025591   0.107610   0.782133   0.443715   0.123279   0.473893   0.469453   30.0000    -0.0385
    0.000   -13.000   0.094072   0.076115   0.025177   0.101292   0.754100   0.427801   0.116973   0.456855   0.452666   30.0000    -0.0302
    0.000   -12.500   0.092991   0.070440   0.024787   0.095227   0.725960   0.411829   0.110915   0.439763   0.435812   30.0000    -0.0221
    0.000   -12.000   0.091938   0.064994   0.024412   0.089405   0.697716   0.395800   0.105100   0.422615   0.418894   30.0000    -0.0141
    0.000   -11.500   0.090917   0.059775   0.024048   0.083823   0.669373   0.379718   0.099516   0.405416   0.401914   30.0000    -0.0062
    0.000   -11.000   0.089927   0.054784   0.023701   0.078485   0.640936   0.363583   0.094167   0.388174   0.384873   30.0000     0.0016
    0.000   -10.500   0.088972   0.050018   0.023395   0.073413   0.612409   0.347399   0.089069   0.370898   0.367776   30.0000     0.0092
    0.000   -10.000   0.088051   0.045479   0.023134   0.068613   0.583797   0.331167   0.084238   0.353594   0.350624   30.0000     0.0166
    0.000    -9.500   0.087166   0.041165   0.022864   0.064029   0.555104   0.314891   0.079629   0.336247   0.333420   30.0000     0.0238
    0.000    -9.000   0.086319   0.037075   0.022607   0.059682   0.526335   0.298571   0.075253   0.318852   0.316165   30.0000     0.0308
    0.000    -8.500   0.085510   0.033209   0.022365   0.055574   0.497494   0.282211   0.071118   0.301411   0.298864   30.0000     0.0376
    0.000    -8.000   0.084741   0.029567   0.022141   0.051708   0.468584   0.265812   0.067223   0.283925   0.281518   30.0000     0.0441
    0.000    -7.500   0.084013   0.026147   0.021955   0.048103   0.439610   0.249377   0.063583   0.266388   0.264129   30.0000     0.0504
    0.000    -7.000   0.083327   0.022951   0.021834   0.044784   0.410577   0.232908   0.060208   0.248798   0.246701   30.0000     0.0563
    0.000    -6.500   0.082683   0.019976   0.021724   0.041700   0.381488   0.216407   0.057070   0.231171   0.229236   30.0000     0.0620
    0.000    -6.000   0.082083   0.017223   0.021617   0.038840   0.352348   0.199876   0.054162   0.213512   0.211737   30.0000     0.0673
    0.000    -5.500   0.081527   0.014691   0.021520   0.036211   0.323160   0.183319   0.051487   0.195826   0.194205   30.0000     0.0722
    0.000    -5.000   0.081017   0.012380   0.021427   0.033807   0.293928   0.166736   0.049045   0.178112   0.176645   30.0000     0.0769
    0.000    -4.500   0.080552   0.010290   0.021343   0.031634   0.264657   0.150131   0.046836   0.160373   0.159058   30.0000     0.0811
    0.000    -4.000   0.080133   0.008420   0.021280   0.029700   0.235351   0.133505   0.044868   0.142609   0.141447   30.0000     0.0849
    0.000    -3.500   0.079761   0.006771   0.021233   0.028004   0.206013   0.116861   0.043138   0.124833   0.123814   30.0000     0.0883
    0.000    -3.000   0.079437   0.005342   0.021191   0.026533   0.176646   0.100201   0.041640   0.107040   0.106163   30.0000     0.0913
    0.000    -2.500   0.079160   0.004132   0.021154   0.025286   0.147256   0.083527   0.040373   0.089232   0.088496   30.0000     0.0939
    0.000    -2.000   0.078931   0.003142   0.021130   0.024272   0.117847   0.066842   0.039341   0.071411   0.070816   30.0000     0.0960
    0.000    -1.500   0.078751   0.002371   0.021120   0.023492   0.088420   0.050148   0.038546   0.053580   0.053125   30.0000     0.0976
    0.000    -1.000   0.078619   0.001820   0.021118   0.022938   0.058982   0.033447   0.037985   0.035738   0.035426   30.0000     0.0988
    0.000    -0.500   0.078535   0.001489   0.021109   0.022598   0.029535   0.016741   0.037640   0.017880   0.017722   30.0000     0.0995
    0.000     0.000   0.078502   0.001377   0.021101   0.022478   0.000082   0.000036   0.037511   0.000011   0.000011   30.0000     0.0998
    0.000     0.500   0.078515   0.001484   0.021109   0.022593  -0.029369  -0.016676   0.037634  -0.017851  -0.017692   30.0000     0.0995
    0.000     1.000   0.078577   0.001810   0.021118   0.022928  -0.058818  -0.033382   0.037975  -0.035708  -0.035397   30.0000     0.0988
    0.000     1.500   0.078689   0.002356   0.021120   0.023476  -0.088260  -0.050083   0.038531  -0.053551  -0.053095   30.0000     0.0976
    0.000     2.000   0.078848   0.003122   0.021130   0.024252  -0.117692  -0.066778   0.039321  -0.071382  -0.070786   30.0000     0.0960
    0.000     2.500   0.079056   0.004107   0.021154   0.025261  -0.147109  -0.083464   0.040347  -0.089202  -0.088466   30.0000     0.0939
    0.000     3.000   0.079312   0.005312   0.021191   0.026503  -0.176508  -0.100139   0.041609  -0.107010  -0.106133   30.0000     0.0913
    0.000     3.500   0.079615   0.006737   0.021233   0.027970  -0.205884  -0.116800   0.043102  -0.124802  -0.123784   30.0000     0.0883
    0.000     4.000   0.079965   0.008382   0.021280   0.029662  -0.235234  -0.133445   0.044828  -0.142578  -0.141416   30.0000     0.0849
    0.000     4.500   0.080362   0.010248   0.021343   0.031592  -0.264554  -0.150072   0.046791  -0.160341  -0.159026   30.0000     0.0811
    0.000     5.000   0.080805   0.012335   0.021427   0.033762  -0.293840  -0.166679   0.048994  -0.178080  -0.176613   30.0000     0.0768
    0.000     5.500   0.081293   0.014642   0.021520   0.036162  -0.323088  -0.183264   0.051432  -0.195793  -0.194173   30.0000     0.0722
    0.000     6.000   0.081826   0.017171   0.021617   0.038788  -0.352294  -0.199823   0.054102  -0.213479  -0.211703   30.0000     0.0672
    0.000     6.500   0.082403   0.019921   0.021724   0.041645  -0.381454  -0.216356   0.057005  -0.231137  -0.229202   30.0000     0.0619
    0.000     7.000   0.083023   0.022894   0.021833   0.044727  -0.410564  -0.232859   0.060138  -0.248762  -0.246666   30.0000     0.0562
    0.000     7.500   0.083685   0.026089   0.021955   0.048044  -0.439620  -0.249330   0.063508  -0.266351  -0.264093   30.0000     0.0502
    0.000     8.000   0.084389   0.029507   0.022141   0.051648  -0.468618  -0.265768   0.067144  -0.283887  -0.281481   30.0000     0.0440
    0.000     8.500   0.085133   0.033149   0.022364   0.055513  -0.497553  -0.282170   0.071034  -0.301372  -0.298826   30.0000     0.0374
    0.000     9.000   0.085916   0.037014   0.022606   0.059620  -0.526422  -0.298533   0.075164  -0.318813  -0.316126   30.0000     0.0306
    0.000     9.500   0.086737   0.041104   0.022864   0.063968  -0.555220  -0.314856   0.079536  -0.336206  -0.333379   30.0000     0.0235
    0.000    10.000   0.087596   0.045419   0.023134   0.068553  -0.583943  -0.331135   0.084140  -0.353552  -0.350583   30.0000     0.0163
    0.000    10.500   0.088489   0.049960   0.023395   0.073355  -0.612587  -0.347370   0.088967  -0.370854  -0.367734   30.0000     0.0088
    0.000    11.000   0.089417   0.054727   0.023702   0.078429  -0.641147  -0.363558   0.094061  -0.388128  -0.384830   30.0000     0.0012
    0.000    11.500   0.090378   0.059722   0.024051   0.083772  -0.669618  -0.379696   0.099406  -0.405369  -0.401868   30.0000    -0.0067
    0.000    12.000   0.091371   0.064944   0.024415   0.089358  -0.697998  -0.395782   0.104986  -0.422566  -0.418847   30.0000    -0.0146
    0.000    12.500   0.092393   0.070394   0.024789   0.095183  -0.726279  -0.411815   0.110797  -0.439713  -0.435764   30.0000    -0.0227
    0.000    13.000   0.093443   0.076074   0.025179   0.101252  -0.754459  -0.427791   0.116850  -0.456803  -0.452616   30.0000    -0.0309
    0.000    13.500   0.094520   0.081983   0.025593   0.107576  -0.782533  -0.443709   0.123153  -0.473839  -0.469401   30.0000    -0.0392
    0.000    14.000   0.095622   0.088124   0.025996   0.114120  -0.810495  -0.459567   0.129668  -0.490799  -0.486117   30.0000    -0.0476
    0.000    14.500   0.096747   0.094496   0.026404   0.120901  -0.838340  -0.475361   0.136408  -0.507687  -0.502761   30.0000    -0.0561
    0.000    15.000   0.097893   0.101102   0.026823   0.127925  -0.866065  -0.491091   0.143373  -0.524503  -0.519331   30.0000    -0.0647
    0.000    15.500   0.099058   0.107940   0.027256   0.135196  -0.893663  -0.506754   0.150570  -0.541247  -0.535824   30.0000    -0.0733
    0.000    16.000   0.100240   0.115014   0.027711   0.142725  -0.921130  -0.522347   0.158007  -0.557916  -0.552240   30.0000    -0.0820
    0.000    16.500   0.101437   0.122323   0.028209   0.150532  -0.948461  -0.537869   0.165691  -0.574505  -0.568574   30.0000    -0.0907
    0.000    17.000   0.102647   0.129869   0.028749   0.158618  -0.975650  -0.553317   0.173612  -0.591005  -0.584825   30.0000    -0.0994
    0.000    17.500   0.103868   0.137652   0.029311   0.166963  -1.002692  -0.568690   0.181762  -0.607426  -0.600991   30.0000    -0.1082
    0.000    18.000   0.105097   0.145675   0.029934   0.175609  -1.029581  -0.583984   0.190148  -0.623759  -0.617070   30.0000    -0.1170


