xflr5 v6.47

Plane name :        VTOL_SINGLE_W1_BELL_LAST_PROJECTED
Polar name :        T1-30.0 m/s-VLM2_wing_projected
Freestream speed :  30.000 m/s


   alpha      Beta       CL          CDi        CDv        CD         CY         Cl         Cm         Cn        Cni       QInf        XCP
  -10.000     0.000  -0.588036   0.008714   0.045842   0.054556  -0.000000   0.000000  -0.507750   0.000000  -0.000000   30.0000     0.0189
   -9.500     0.000  -0.542971   0.007432   0.041364   0.048797  -0.000000   0.000000  -0.476091   0.000000  -0.000000   30.0000     0.0161
   -9.000     0.000  -0.497825   0.006249   0.038701   0.044950  -0.000000   0.000000  -0.444533   0.000000  -0.000000   30.0000     0.0127
   -8.500     0.000  -0.452606   0.005166   0.036721   0.041887  -0.000000   0.000000  -0.412941   0.000000  -0.000000   30.0000     0.0087
   -8.000     0.000  -0.407318   0.004183   0.034934   0.039117  -0.000000   0.000000  -0.381263   0.000000   0.000000   30.0000     0.0039
   -7.500     0.000  -0.361969   0.003303   0.032868   0.036171  -0.000000   0.000000  -0.349462   0.000000  -0.000000   30.0000    -0.0023
   -7.000     0.000  -0.316563   0.002525   0.030942   0.033467  -0.000000   0.000000  -0.317592   0.000000   0.000000   30.0000    -0.0101
   -6.500     0.000  -0.271108   0.001850   0.028437   0.030287  -0.000000   0.000000  -0.285598   0.000000  -0.000000   30.0000    -0.0206
   -6.000     0.000  -0.225609   0.001279   0.024815   0.026094  -0.000000   0.000000  -0.253461   0.000000  -0.000000   30.0000    -0.0354
   -5.500     0.000  -0.180073   0.000813   0.017546   0.018359  -0.000000   0.000000  -0.221053   0.000000  -0.000000   30.0000    -0.0576
   -5.000     0.000  -0.134506   0.000453   0.012663   0.013115  -0.000000   0.000000  -0.188815  -0.000000   0.000000   30.0000    -0.0948
   -4.500     0.000  -0.088914   0.000197   0.013199   0.013396  -0.000000   0.000000  -0.156862  -0.000000  -0.000000   30.0000    -0.1703
   -4.000     0.000  -0.043304   0.000048   0.013845   0.013894  -0.000000   0.000000  -0.124857  -0.000000  -0.000000   30.0000    -0.4047
   -3.500     0.000   0.002319   0.000006   0.014546   0.014551  -0.000000   0.000000  -0.092807  -0.000000  -0.000000   30.0000     8.5848
   -3.000     0.000   0.047948   0.000069   0.015225   0.015294  -0.000000   0.000000  -0.060716   0.000000   0.000000   30.0000     0.4649
   -2.500     0.000   0.093577   0.000239   0.015733   0.015972  -0.000000   0.000000  -0.028590   0.000000  -0.000000   30.0000     0.2636
   -2.000     0.000   0.139199   0.000516   0.015830   0.016346   0.000000  -0.000000   0.003562   0.000000   0.000000   30.0000     0.1943
   -1.500     0.000   0.184809   0.000900   0.015814   0.016713   0.000000  -0.000000   0.035719   0.000000   0.000000   30.0000     0.1592
   -1.000     0.000   0.230400   0.001390   0.015769   0.017159   0.000000  -0.000000   0.067868   0.000000   0.000000   30.0000     0.1380
   -0.500     0.000   0.275966   0.001986   0.015744   0.017731   0.000000  -0.000000   0.099998   0.000000   0.000000   30.0000     0.1238
    0.000     0.000   0.321500   0.002689   0.015647   0.018336   0.000000  -0.000000   0.132100   0.000000   0.000000   30.0000     0.1136
    0.500     0.000   0.366996   0.003497   0.015508   0.019005   0.000000  -0.000000   0.164163  -0.000000   0.000000   30.0000     0.1060
    1.000     0.000   0.412449   0.004410   0.015295   0.019705  -0.000000  -0.000000   0.196176  -0.000000   0.000000   30.0000     0.1000
    1.500     0.000   0.457851   0.005428   0.015096   0.020524  -0.000000  -0.000000   0.228129  -0.000000   0.000000   30.0000     0.0953
    2.000     0.000   0.503197   0.006550   0.014933   0.021483  -0.000000  -0.000000   0.260014  -0.000000   0.000000   30.0000     0.0914
    2.500     0.000   0.548480   0.007775   0.014671   0.022446  -0.000000  -0.000000   0.291817  -0.000000   0.000000   30.0000     0.0881
    3.000     0.000   0.593695   0.009103   0.014326   0.023429  -0.000000  -0.000000   0.323528  -0.000000  -0.000000   30.0000     0.0854
    3.500     0.000   0.638835   0.010533   0.014066   0.024599  -0.000000  -0.000000   0.355142  -0.000000   0.000000   30.0000     0.0830
    4.000     0.000   0.683894   0.012064   0.013700   0.025763  -0.000000  -0.000000   0.386643  -0.000000  -0.000000   30.0000     0.0810
    4.500     0.000   0.728866   0.013694   0.013433   0.027127  -0.000000  -0.000000   0.418030  -0.000000  -0.000000   30.0000     0.0792
    5.000     0.000   0.773744   0.015424   0.013529   0.028953  -0.000000  -0.000000   0.449310   0.000000   0.000000   30.0000     0.0776
    5.500     0.000   0.818524   0.017251   0.014114   0.031365  -0.000000  -0.000000   0.480490   0.000000  -0.000000   30.0000     0.0762
    6.000     0.000   0.863199   0.019174   0.015003   0.034178  -0.000000  -0.000000   0.511556   0.000000   0.000000   30.0000     0.0749
    6.500     0.000   0.907762   0.021193   0.016098   0.037290  -0.000000  -0.000000   0.542497   0.000000   0.000000   30.0000     0.0738
    7.000     0.000   0.952209   0.023305   0.017263   0.040568  -0.000000  -0.000000   0.573294   0.000000  -0.000000   30.0000     0.0728
    7.500     0.000   0.996533   0.025510   0.018572   0.044082  -0.000000  -0.000000   0.603947   0.000000  -0.000000   30.0000     0.0719
    8.000     0.000   1.040728   0.027805   0.020073   0.047878  -0.000000  -0.000000   0.634453   0.000000   0.000000   30.0000     0.0710
    8.500     0.000   1.084789   0.030190   0.021763   0.051952  -0.000000  -0.000000   0.664807   0.000000  -0.000000   30.0000     0.0703
    9.000     0.000   1.128710   0.032662   0.023961   0.056623  -0.000000  -0.000000   0.695037   0.000000  -0.000000   30.0000     0.0696
    9.500     0.000   1.172484   0.035220   0.026360   0.061580  -0.000000  -0.000000   0.725108   0.000000  -0.000000   30.0000     0.0689
   10.000     0.000   1.216108   0.037862   0.029314   0.067176  -0.000000  -0.000000   0.755057   0.000000  -0.000000   30.0000     0.0683
   10.500     0.000   1.259574   0.040586   0.032803   0.073389  -0.000000  -0.000000   0.784882   0.000000  -0.000000   30.0000     0.0678
   11.000     0.000   1.302878   0.043391   0.036970   0.080360  -0.000000  -0.000000   0.814603   0.000000  -0.000000   30.0000     0.0673
   11.500     0.000   1.346014   0.046273   0.042110   0.088383  -0.000000  -0.000000   0.844264   0.000000  -0.000000   30.0000     0.0668
   12.000     0.000   1.388977   0.049232   0.048540   0.097773  -0.000000  -0.000000   0.873918   0.000000   0.000000   30.0000     0.0663
   12.500     0.000   1.431761   0.052265   0.055916   0.108182  -0.000000  -0.000000   0.903530   0.000000  -0.000000   30.0000     0.0659


