xflr5 v6.47

Plane name :        VTOL_SINGLE_W1_BELL_LAST_PROJECTED
Polar name :        T5-a0.0°-30.0m/s-Panel_wing_projected_beta

   alpha      Beta       CL          CDi        CDv        CD         CY         Cl         Cm         Cn        Cni       QInf        XCP
    0.000     0.000   0.350953   0.003186   0.016315   0.019501  -0.000000   0.000000   0.161780  -0.000000  -0.000000   30.0000     0.0953
    0.000     0.500   0.350924   0.003186   0.016315   0.019500   0.000023   0.000231   0.161748   0.000037   0.000047   30.0000     0.0954
    0.000     1.000   0.350837   0.003185   0.016315   0.019500   0.000046   0.000461   0.161651   0.000073   0.000094   30.0000     0.0954
    0.000     1.500   0.350692   0.003184   0.016315   0.019499   0.000069   0.000692   0.161491   0.000110   0.000141   30.0000     0.0954
    0.000     2.000   0.350490   0.003182   0.016316   0.019498   0.000091   0.000922   0.161267   0.000146   0.000188   30.0000     0.0954
    0.000     2.500   0.350230   0.003180   0.016317   0.019497   0.000114   0.001151   0.160978   0.000183   0.000235   30.0000     0.0954
    0.000     3.000   0.349912   0.003178   0.016317   0.019495   0.000137   0.001380   0.160627   0.000219   0.000282   30.0000     0.0955
    0.000     3.500   0.349537   0.003175   0.016318   0.019493   0.000160   0.001607   0.160212   0.000255   0.000328   30.0000     0.0955
    0.000     4.000   0.349104   0.003172   0.016319   0.019491   0.000182   0.001834   0.159734   0.000291   0.000375   30.0000     0.0956
    0.000     4.500   0.348614   0.003168   0.016321   0.019489   0.000205   0.002060   0.159193   0.000327   0.000422   30.0000     0.0957
    0.000     5.000   0.348067   0.003164   0.016322   0.019486   0.000227   0.002284   0.158590   0.000363   0.000468   30.0000     0.0957
    0.000     5.500   0.347463   0.003159   0.016324   0.019483   0.000250   0.002507   0.157925   0.000399   0.000514   30.0000     0.0958
    0.000     6.000   0.346803   0.003154   0.016325   0.019479   0.000272   0.002729   0.157199   0.000435   0.000560   30.0000     0.0959
    0.000     6.500   0.346086   0.003148   0.016327   0.019475   0.000294   0.002948   0.156411   0.000470   0.000606   30.0000     0.0960
    0.000     7.000   0.345312   0.003142   0.016328   0.019470   0.000317   0.003166   0.155564   0.000505   0.000652   30.0000     0.0961
    0.000     7.500   0.344483   0.003136   0.016330   0.019466   0.000339   0.003382   0.154657   0.000541   0.000697   30.0000     0.0962
    0.000     8.000   0.343598   0.003129   0.016332   0.019461   0.000361   0.003596   0.153691   0.000575   0.000742   30.0000     0.0964
    0.000     8.500   0.342658   0.003121   0.016334   0.019455   0.000383   0.003808   0.152667   0.000610   0.000787   30.0000     0.0965
    0.000     9.000   0.341662   0.003114   0.016336   0.019450   0.000404   0.004017   0.151586   0.000644   0.000832   30.0000     0.0966
    0.000     9.500   0.340612   0.003105   0.016339   0.019445   0.000426   0.004224   0.150447   0.000679   0.000877   30.0000     0.0968
    0.000    10.000   0.339507   0.003097   0.016342   0.019439   0.000448   0.004428   0.149253   0.000713   0.000921   30.0000     0.0969
    0.000    10.500   0.338348   0.003088   0.016346   0.019433   0.000469   0.004630   0.148004   0.000746   0.000965   30.0000     0.0971
    0.000    11.000   0.337136   0.003078   0.016349   0.019427   0.000490   0.004829   0.146701   0.000780   0.001008   30.0000     0.0973
    0.000    11.500   0.335870   0.003068   0.016352   0.019421   0.000511   0.005024   0.145344   0.000813   0.001051   30.0000     0.0974
    0.000    12.000   0.334551   0.003058   0.016356   0.019414   0.000532   0.005217   0.143936   0.000845   0.001094   30.0000     0.0976
    0.000    12.500   0.333180   0.003047   0.016359   0.019406   0.000553   0.005407   0.142476   0.000878   0.001137   30.0000     0.0978
    0.000    13.000   0.331757   0.003036   0.016363   0.019399   0.000574   0.005593   0.140967   0.000909   0.001179   30.0000     0.0980
    0.000    13.500   0.330283   0.003025   0.016366   0.019391   0.000594   0.005776   0.139408   0.000941   0.001221   30.0000     0.0982
    0.000    14.000   0.328757   0.003013   0.016370   0.019382   0.000614   0.005955   0.137802   0.000972   0.001262   30.0000     0.0984
    0.000    14.500   0.327181   0.003000   0.016373   0.019374   0.000634   0.006131   0.136149   0.001003   0.001303   30.0000     0.0987
    0.000    15.000   0.325555   0.002987   0.016377   0.019365   0.000654   0.006303   0.134451   0.001033   0.001344   30.0000     0.0989
    0.000    15.500   0.323880   0.002974   0.016381   0.019355   0.000674   0.006471   0.132708   0.001063   0.001384   30.0000     0.0992
    0.000    16.000   0.322156   0.002961   0.016384   0.019345   0.000693   0.006635   0.130923   0.001092   0.001423   30.0000     0.0994
    0.000    16.500   0.320383   0.002947   0.016388   0.019334   0.000713   0.006796   0.129096   0.001121   0.001463   30.0000     0.0997
    0.000    17.000   0.318563   0.002932   0.016392   0.019324   0.000732   0.006952   0.127229   0.001149   0.001501   30.0000     0.0999
    0.000    17.500   0.316695   0.002917   0.016395   0.019312   0.000750   0.007104   0.125323   0.001177   0.001539   30.0000     0.1002
    0.000    18.000   0.314782   0.002902   0.016398   0.019301   0.000769   0.007252   0.123379   0.001204   0.001577   30.0000     0.1005
    0.000    18.500   0.312822   0.002887   0.016402   0.019289   0.000787   0.007395   0.121399   0.001230   0.001614   30.0000     0.1008
    0.000    19.000   0.310817   0.002871   0.016405   0.019276   0.000805   0.007534   0.119384   0.001256   0.001651   30.0000     0.1011
    0.000    19.500   0.308768   0.002855   0.016408   0.019262   0.000823   0.007669   0.117336   0.001282   0.001687   30.0000     0.1014
    0.000    20.000   0.306675   0.002838   0.016411   0.019249   0.000841   0.007799   0.115257   0.001307   0.001723   30.0000     0.1017
    0.000    20.500   0.304538   0.002821   0.016414   0.019235   0.000858   0.007925   0.113147   0.001331   0.001758   30.0000     0.1020
    0.000    21.000   0.302360   0.002804   0.016416   0.019220   0.000875   0.008045   0.111008   0.001355   0.001792   30.0000     0.1024
    0.000    21.500   0.300139   0.002786   0.016419   0.019205   0.000892   0.008162   0.108842   0.001378   0.001826   30.0000     0.1027
    0.000    22.000   0.297878   0.002768   0.016420   0.019187   0.000908   0.008273   0.106650   0.001400   0.001860   30.0000     0.1030
    0.000    22.500   0.295576   0.002749   0.016419   0.019168   0.000924   0.008379   0.104435   0.001422   0.001892   30.0000     0.1034
    0.000    23.000   0.293235   0.002730   0.016419   0.019149   0.000940   0.008481   0.102196   0.001444   0.001924   30.0000     0.1038
    0.000    23.500   0.290855   0.002711   0.016418   0.019130   0.000956   0.008578   0.099937   0.001465   0.001956   30.0000     0.1041
    0.000    24.000   0.288438   0.002692   0.016418   0.019110   0.000971   0.008670   0.097658   0.001485   0.001987   30.0000     0.1045
    0.000    24.500   0.285983   0.002672   0.016417   0.019089   0.000986   0.008757   0.095362   0.001505   0.002017   30.0000     0.1049
    0.000    25.000   0.283492   0.002652   0.016417   0.019069   0.001001   0.008838   0.093050   0.001524   0.002046   30.0000     0.1053
    0.000    25.500   0.280966   0.002632   0.016416   0.019048   0.001015   0.008915   0.090723   0.001542   0.002075   30.0000     0.1057
    0.000    26.000   0.278405   0.002611   0.016416   0.019026   0.001029   0.008987   0.088383   0.001560   0.002103   30.0000     0.1061
    0.000    26.500   0.275811   0.002590   0.016415   0.019005   0.001043   0.009053   0.086032   0.001576   0.002131   30.0000     0.1066
    0.000    27.000   0.273183   0.002568   0.016414   0.018982   0.001056   0.009115   0.083672   0.001592   0.002158   30.0000     0.1070
    0.000    27.500   0.270524   0.002547   0.016413   0.018960   0.001069   0.009171   0.081303   0.001608   0.002184   30.0000     0.1074
    0.000    28.000   0.267833   0.002525   0.016413   0.018938   0.001081   0.009223   0.078929   0.001622   0.002209   30.0000     0.1079
    0.000    28.500   0.265113   0.002503   0.016413   0.018916   0.001094   0.009269   0.076550   0.001636   0.002234   30.0000     0.1083
    0.000    29.000   0.262363   0.002480   0.016414   0.018894   0.001106   0.009310   0.074168   0.001649   0.002258   30.0000     0.1088
    0.000    29.500   0.259585   0.002457   0.016414   0.018872   0.001117   0.009346   0.071784   0.001662   0.002281   30.0000     0.1093
    0.000    30.000   0.256779   0.002434   0.016415   0.018849   0.001128   0.009376   0.069401   0.001673   0.002304   30.0000     0.1098


