xflr5 v6.47

Plane name :        VTOL_SINGLE_W1_BELL_LAST_PROJECTED
Polar name :        T5-a0.0°-30.0m/s-VLM2_wing_projected_beta

   alpha      Beta       CL          CDi        CDv        CD         CY         Cl         Cm         Cn        Cni       QInf        XCP
    0.000     0.000   0.321500   0.002689   0.015647   0.018336  -0.000000  -0.000000   0.132100  -0.000000   0.000000   30.0000     0.1136
    0.000     0.500   0.321473   0.002689   0.015647   0.018336   0.000022   0.000283   0.132064  -0.000009   0.000001   30.0000     0.1137
    0.000     1.000   0.321395   0.002688   0.015648   0.018336   0.000044   0.000566   0.131955  -0.000017   0.000003   30.0000     0.1137
    0.000     1.500   0.321263   0.002687   0.015648   0.018335   0.000066   0.000848   0.131774  -0.000026   0.000004   30.0000     0.1137
    0.000     2.000   0.321079   0.002685   0.015649   0.018334   0.000088   0.001130   0.131520  -0.000034   0.000006   30.0000     0.1138
    0.000     2.500   0.320843   0.002684   0.015649   0.018333   0.000110   0.001411   0.131194  -0.000043   0.000007   30.0000     0.1139
    0.000     3.000   0.320554   0.002681   0.015650   0.018331   0.000132   0.001691   0.130797  -0.000052   0.000008   30.0000     0.1140
    0.000     3.500   0.320213   0.002679   0.015651   0.018330   0.000153   0.001970   0.130328  -0.000060   0.000010   30.0000     0.1141
    0.000     4.000   0.319820   0.002676   0.015652   0.018328   0.000175   0.002248   0.129787  -0.000069   0.000011   30.0000     0.1142
    0.000     4.500   0.319374   0.002672   0.015653   0.018325   0.000197   0.002525   0.129176  -0.000078   0.000012   30.0000     0.1144
    0.000     5.000   0.318877   0.002668   0.015655   0.018323   0.000219   0.002800   0.128495  -0.000086   0.000014   30.0000     0.1145
    0.000     5.500   0.318328   0.002664   0.015656   0.018320   0.000240   0.003074   0.127743  -0.000095   0.000015   30.0000     0.1147
    0.000     6.000   0.317728   0.002659   0.015658   0.018317   0.000262   0.003345   0.126923  -0.000103   0.000017   30.0000     0.1149
    0.000     6.500   0.317076   0.002654   0.015660   0.018314   0.000283   0.003615   0.126034  -0.000112   0.000018   30.0000     0.1152
    0.000     7.000   0.316373   0.002649   0.015662   0.018311   0.000304   0.003882   0.125077  -0.000120   0.000019   30.0000     0.1154
    0.000     7.500   0.315619   0.002643   0.015665   0.018307   0.000326   0.004147   0.124053  -0.000129   0.000021   30.0000     0.1157
    0.000     8.000   0.314815   0.002636   0.015667   0.018303   0.000347   0.004409   0.122962  -0.000137   0.000022   30.0000     0.1159
    0.000     8.500   0.313960   0.002630   0.015670   0.018299   0.000368   0.004669   0.121806  -0.000146   0.000023   30.0000     0.1162
    0.000     9.000   0.313055   0.002623   0.015672   0.018295   0.000389   0.004926   0.120586  -0.000155   0.000025   30.0000     0.1165
    0.000     9.500   0.312100   0.002615   0.015675   0.018290   0.000410   0.005180   0.119302  -0.000163   0.000026   30.0000     0.1169
    0.000    10.000   0.311096   0.002607   0.015677   0.018284   0.000430   0.005431   0.117955  -0.000172   0.000027   30.0000     0.1172
    0.000    10.500   0.310042   0.002599   0.015680   0.018279   0.000451   0.005678   0.116546  -0.000180   0.000028   30.0000     0.1176
    0.000    11.000   0.308940   0.002590   0.015682   0.018273   0.000471   0.005922   0.115077  -0.000189   0.000030   30.0000     0.1180
    0.000    11.500   0.307789   0.002581   0.015685   0.018267   0.000491   0.006163   0.113549  -0.000198   0.000031   30.0000     0.1184
    0.000    12.000   0.306590   0.002572   0.015688   0.018260   0.000511   0.006400   0.111962  -0.000206   0.000032   30.0000     0.1188
    0.000    12.500   0.305344   0.002562   0.015691   0.018253   0.000531   0.006633   0.110319  -0.000215   0.000034   30.0000     0.1192
    0.000    13.000   0.304050   0.002552   0.015694   0.018246   0.000551   0.006862   0.108619  -0.000224   0.000035   30.0000     0.1197
    0.000    13.500   0.302709   0.002542   0.015696   0.018238   0.000570   0.007087   0.106865  -0.000233   0.000036   30.0000     0.1202
    0.000    14.000   0.301322   0.002531   0.015699   0.018230   0.000589   0.007307   0.105059  -0.000242   0.000037   30.0000     0.1207
    0.000    14.500   0.299889   0.002519   0.015702   0.018221   0.000609   0.007524   0.103200  -0.000250   0.000038   30.0000     0.1212
    0.000    15.000   0.298411   0.002508   0.015705   0.018212   0.000628   0.007735   0.101291  -0.000259   0.000040   30.0000     0.1217
    0.000    15.500   0.296887   0.002496   0.015707   0.018203   0.000646   0.007943   0.099334  -0.000268   0.000041   30.0000     0.1223
    0.000    16.000   0.295319   0.002484   0.015709   0.018193   0.000665   0.008145   0.097329  -0.000277   0.000042   30.0000     0.1228
    0.000    16.500   0.293707   0.002471   0.015712   0.018183   0.000683   0.008343   0.095279  -0.000286   0.000043   30.0000     0.1234
    0.000    17.000   0.292052   0.002458   0.015714   0.018172   0.000701   0.008535   0.093184  -0.000296   0.000044   30.0000     0.1240
    0.000    17.500   0.290353   0.002445   0.015717   0.018162   0.000719   0.008723   0.091048  -0.000305   0.000045   30.0000     0.1247
    0.000    18.000   0.288613   0.002431   0.015719   0.018150   0.000736   0.008906   0.088870  -0.000314   0.000047   30.0000     0.1253
    0.000    18.500   0.286830   0.002417   0.015720   0.018137   0.000754   0.009083   0.086653  -0.000323   0.000048   30.0000     0.1260
    0.000    19.000   0.285006   0.002403   0.015720   0.018122   0.000771   0.009255   0.084398  -0.000332   0.000049   30.0000     0.1267
    0.000    19.500   0.283142   0.002388   0.015720   0.018107   0.000788   0.009421   0.082108  -0.000341   0.000050   30.0000     0.1274
    0.000    20.000   0.281238   0.002373   0.015719   0.018092   0.000804   0.009582   0.079784  -0.000350   0.000051   30.0000     0.1281
    0.000    20.500   0.279294   0.002358   0.015719   0.018077   0.000821   0.009738   0.077428  -0.000359   0.000052   30.0000     0.1288
    0.000    21.000   0.277312   0.002342   0.015719   0.018061   0.000837   0.009887   0.075041  -0.000369   0.000053   30.0000     0.1296
    0.000    21.500   0.275292   0.002326   0.015718   0.018045   0.000852   0.010031   0.072626  -0.000378   0.000054   30.0000     0.1304
    0.000    22.000   0.273234   0.002310   0.015718   0.018028   0.000868   0.010169   0.070184  -0.000387   0.000055   30.0000     0.1312
    0.000    22.500   0.271140   0.002293   0.015718   0.018011   0.000883   0.010302   0.067717  -0.000396   0.000056   30.0000     0.1320
    0.000    23.000   0.269009   0.002277   0.015718   0.017994   0.000898   0.010428   0.065228  -0.000405   0.000057   30.0000     0.1329
    0.000    23.500   0.266843   0.002260   0.015717   0.017977   0.000913   0.010549   0.062717  -0.000415   0.000058   30.0000     0.1337
    0.000    24.000   0.264643   0.002242   0.015717   0.017959   0.000927   0.010663   0.060188  -0.000424   0.000059   30.0000     0.1346
    0.000    24.500   0.262409   0.002225   0.015717   0.017942   0.000941   0.010771   0.057641  -0.000434   0.000059   30.0000     0.1355
    0.000    25.000   0.260141   0.002207   0.015717   0.017924   0.000955   0.010874   0.055079  -0.000443   0.000060   30.0000     0.1364
    0.000    25.500   0.257842   0.002188   0.015717   0.017906   0.000968   0.010970   0.052504  -0.000453   0.000061   30.0000     0.1374
    0.000    26.000   0.255510   0.002170   0.015717   0.017887   0.000981   0.011060   0.049918  -0.000463   0.000062   30.0000     0.1383
    0.000    26.500   0.253148   0.002151   0.015717   0.017869   0.000994   0.011143   0.047322  -0.000472   0.000063   30.0000     0.1393
    0.000    27.000   0.250756   0.002133   0.015717   0.017850   0.001006   0.011221   0.044719  -0.000482   0.000064   30.0000     0.1403
    0.000    27.500   0.248334   0.002113   0.015718   0.017831   0.001018   0.011292   0.042111  -0.000492   0.000064   30.0000     0.1414
    0.000    28.000   0.245884   0.002094   0.015718   0.017812   0.001030   0.011357   0.039499  -0.000501   0.000065   30.0000     0.1424
    0.000    28.500   0.243406   0.002074   0.015719   0.017794   0.001041   0.011416   0.036887  -0.000511   0.000066   30.0000     0.1435
    0.000    29.000   0.240902   0.002055   0.015720   0.017775   0.001052   0.011468   0.034274  -0.000521   0.000067   30.0000     0.1446
    0.000    29.500   0.238371   0.002035   0.015722   0.017756   0.001063   0.011515   0.031665  -0.000531   0.000067   30.0000     0.1457
    0.000    30.000   0.235816   0.002014   0.015723   0.017737   0.001073   0.011555   0.029060  -0.000540   0.000068   30.0000     0.1468


