xflr5 v6.47

Plane name :        VTOL_SINGLE_VTAIL_NACA_LAST_PROJECTED_NO_CENTER_SECTION
Polar name :        T1-30.0 m/s-Panel_vtail_projected_no_center
Freestream speed :  30.000 m/s


   alpha      Beta       CL          CDi        CDv        CD         CY         Cl         Cm         Cn        Cni       QInf        XCP
  -12.500     0.000  -1.018937   0.043124   0.028282   0.071406   0.000000  -0.000000  -0.747934  -0.000000  -0.000000   30.0000     0.0790
  -12.000     0.000  -0.978158   0.039879   0.025058   0.064937   0.000000  -0.000000  -0.718241  -0.000000  -0.000000   30.0000     0.0795
  -11.500     0.000  -0.937136   0.036725   0.022818   0.059544  -0.000000   0.000000  -0.688771   0.000000   0.000000   30.0000     0.0801
  -11.000     0.000  -0.896018   0.033685   0.021007   0.054692  -0.000000  -0.000000  -0.659340  -0.000000  -0.000000   30.0000     0.0806
  -10.500     0.000  -0.854834   0.030762   0.019533   0.050295  -0.000000   0.000000  -0.629915   0.000000   0.000000   30.0000     0.0811
  -10.000     0.000  -0.813563   0.027957   0.018229   0.046186  -0.000000   0.000000  -0.600426   0.000000   0.000000   30.0000     0.0816
   -9.500     0.000  -0.772430   0.025293   0.017202   0.042496  -0.000000  -0.000000  -0.570983  -0.000000  -0.000000   30.0000     0.0821
   -9.000     0.000  -0.731192   0.022746   0.016368   0.039114  -0.000000  -0.000000  -0.541460  -0.000000  -0.000000   30.0000     0.0825
   -8.500     0.000  -0.689980   0.020330   0.015623   0.035952  -0.000000  -0.000000  -0.511875  -0.000000  -0.000000   30.0000     0.0830
   -8.000     0.000  -0.648760   0.018041   0.015004   0.033045  -0.000000  -0.000000  -0.482222  -0.000000  -0.000000   30.0000     0.0834
   -7.500     0.000  -0.607563   0.015883   0.014404   0.030287  -0.000000   0.000000  -0.452485   0.000000   0.000000   30.0000     0.0838
   -7.000     0.000  -0.566400   0.013858   0.013784   0.027642  -0.000000  -0.000000  -0.422660  -0.000000  -0.000000   30.0000     0.0842
   -6.500     0.000  -0.525284   0.011967   0.013111   0.025078  -0.000000   0.000000  -0.392750   0.000000   0.000000   30.0000     0.0846
   -6.000     0.000  -0.484229   0.010211   0.012427   0.022638  -0.000000  -0.000000  -0.362774  -0.000000  -0.000000   30.0000     0.0849
   -5.500     0.000  -0.443239   0.008591   0.011752   0.020342  -0.000000   0.000000  -0.332738   0.000000   0.000000   30.0000     0.0853
   -5.000     0.000  -0.402330   0.007108   0.010875   0.017983  -0.000000   0.000000  -0.302616   0.000000   0.000000   30.0000     0.0856
   -4.500     0.000  -0.361509   0.005764   0.010034   0.015798  -0.000000  -0.000000  -0.272458  -0.000000  -0.000000   30.0000     0.0859
   -4.000     0.000  -0.320779   0.004557   0.009434   0.013992  -0.000000  -0.000000  -0.242292  -0.000000  -0.000000   30.0000     0.0863
   -3.500     0.000  -0.280187   0.003493   0.009247   0.012740   0.000000   0.000000  -0.212153   0.000000   0.000000   30.0000     0.0865
   -3.000     0.000  -0.239671   0.002567   0.009098   0.011665  -0.000000  -0.000000  -0.181960  -0.000000  -0.000000   30.0000     0.0868
   -2.500     0.000  -0.199359   0.001785   0.009017   0.010801  -0.000000  -0.000000  -0.151753  -0.000000  -0.000000   30.0000     0.0870
   -2.000     0.000  -0.159166   0.001143   0.008999   0.010142   0.000000   0.000000  -0.121525   0.000000   0.000000   30.0000     0.0872
   -1.500     0.000  -0.119125   0.000643   0.008996   0.009640   0.000000   0.000000  -0.091271   0.000000   0.000000   30.0000     0.0875
   -1.000     0.000  -0.079252   0.000286   0.009054   0.009340  -0.000000  -0.000000  -0.060995  -0.000000  -0.000000   30.0000     0.0876
   -0.500     0.000  -0.039558   0.000072   0.009134   0.009206  -0.000000  -0.000000  -0.030708  -0.000000  -0.000000   30.0000     0.0877
    0.000     0.000  -0.000055   0.000000   0.009217   0.009217   0.000000   0.000000  -0.000404  -0.000000  -0.000000   30.0000     0.0645
    0.500     0.000   0.039248   0.000071   0.009135   0.009206  -0.000000   0.000000   0.029905   0.000000   0.000000   30.0000     0.0883
    1.000     0.000   0.078337   0.000285   0.009054   0.009340   0.000000   0.000000   0.060208  -0.000000  -0.000000   30.0000     0.0886
    1.500     0.000   0.117203   0.000642   0.008996   0.009639  -0.000000  -0.000000   0.090508   0.000000  -0.000000   30.0000     0.0888
    2.000     0.000   0.155835   0.001141   0.008999   0.010140  -0.000000  -0.000000   0.120796  -0.000000  -0.000000   30.0000     0.0891
    2.500     0.000   0.194217   0.001783   0.009016   0.010799   0.000000   0.000000   0.151067  -0.000000  -0.000000   30.0000     0.0893
    3.000     0.000   0.232316   0.002564   0.009097   0.011662   0.000000   0.000000   0.181327  -0.000000  -0.000000   30.0000     0.0895
    3.500     0.000   0.270218   0.003490   0.009257   0.012748  -0.000000  -0.000000   0.211584   0.000000   0.000000   30.0000     0.0898
    4.000     0.000   0.307796   0.004554   0.009469   0.014023   0.000000   0.000000   0.241800  -0.000000  -0.000000   30.0000     0.0899
    4.500     0.000   0.345113   0.005760   0.010091   0.015851   0.000000   0.000000   0.272051  -0.000000  -0.000000   30.0000     0.0900
    5.000     0.000   0.382121   0.007104   0.010945   0.018049  -0.000000  -0.000000   0.302303   0.000000   0.000000   30.0000     0.0902
    5.500     0.000   0.418821   0.008586   0.011810   0.020397  -0.000000  -0.000000   0.332526   0.000000   0.000000   30.0000     0.0903
    6.000     0.000   0.455204   0.010206   0.012473   0.022679   0.000000   0.000000   0.362672  -0.000000  -0.000000   30.0000     0.0904
    6.500     0.000   0.491258   0.011962   0.013145   0.025106  -0.000000  -0.000000   0.392768   0.000000   0.000000   30.0000     0.0905
    7.000     0.000   0.526978   0.013852   0.013804   0.027656  -0.000000  -0.000000   0.422806  -0.000000   0.000000   30.0000     0.0906
    7.500     0.000   0.562352   0.015877   0.014411   0.030288  -0.000000  -0.000000   0.452768   0.000000   0.000000   30.0000     0.0906
    8.000     0.000   0.597369   0.018035   0.015003   0.033038  -0.000000  -0.000000   0.482654   0.000000   0.000000   30.0000     0.0907
    8.500     0.000   0.632020   0.020323   0.015627   0.035950   0.000000   0.000000   0.512468  -0.000000  -0.000000   30.0000     0.0907
    9.000     0.000   0.666276   0.022739   0.016360   0.039099   0.000000   0.000000   0.542218  -0.000000  -0.000000   30.0000     0.0907
    9.500     0.000   0.700170   0.025286   0.017176   0.042462  -0.000000  -0.000000   0.571913   0.000000   0.000000   30.0000     0.0907
   10.000     0.000   0.733580   0.027949   0.018189   0.046138  -0.000000  -0.000000   0.601537   0.000000   0.000000   30.0000     0.0906
   10.500     0.000   0.766738   0.030754   0.019507   0.050260  -0.000000  -0.000000   0.631227   0.000000   0.000000   30.0000     0.0906
   11.000     0.000   0.799431   0.033676   0.021001   0.054677  -0.000000  -0.000000   0.660865   0.000000   0.000000   30.0000     0.0905
   11.500     0.000   0.831682   0.036717   0.022814   0.059531  -0.000000  -0.000000   0.690511   0.000000   0.000000   30.0000     0.0904
   12.000     0.000   0.863463   0.039870   0.025051   0.064921  -0.000000   0.000000   0.720203  -0.000000  -0.000000   30.0000     0.0903
   12.500     0.000   0.894637   0.043114   0.028250   0.071364  -0.000000  -0.000000   0.750118  -0.000000  -0.000000   30.0000     0.0901
   13.000     0.000   0.925664   0.046519   0.145302   0.191821   0.000000   0.000000   0.824955  -0.000000  -0.000000   30.0000     0.0899
   13.500     0.000   0.952778   0.049684   0.224383   0.274067  -0.000000  -0.000000   0.887082   0.000000   0.000000   30.0000     0.0894
   14.000     0.000   0.984645   0.053327   0.279277   0.332605   0.000000   0.000000   0.942274  -0.000000  -0.000000   30.0000     0.0895
   14.500     0.000   1.015777   0.057374   0.325276   0.382651  -0.000000  -0.000000   0.995642   0.000000   0.000000   30.0000     0.0888


