xflr5 v6.43

Plane name :        VTOL_SINGLE_VTail_0008_LAST
Polar name :        T1-25.0 m/s-LLT-0.0kg-x0.005m
Freestream speed :  25.000 m/s


   alpha      Beta       CL          CDi        CDv        CD         CY         Cl         Cm         Cn        Cni       QInf        XCP
  -11.500     0.000  -0.961892   0.037417   0.028247   0.065665   0.000000   0.000000   0.628496   0.000000  -0.000000   25.0000     0.1267
  -11.000     0.000  -0.937747   0.035560   0.026334   0.061894   0.000000   0.000000   0.621971  -0.000000  -0.000000   25.0000     0.1275
  -10.500     0.000  -0.911625   0.033552   0.024537   0.058089   0.000000   0.000000   0.613299   0.000000   0.000000   25.0000     0.1282
  -10.000     0.000  -0.883098   0.031484   0.022935   0.054420   0.000000   0.000000   0.602424   0.000000   0.000000   25.0000     0.1289
   -9.500     0.000  -0.854009   0.029423   0.021529   0.050952   0.000000   0.000000   0.590776   0.000000   0.000000   25.0000     0.1295
   -9.000     0.000  -0.823008   0.027316   0.020340   0.047655   0.000000   0.000000   0.577358  -0.000000  -0.000000   25.0000     0.1302
   -8.500     0.000  -0.791456   0.025250   0.019190   0.044440   0.000000   0.000000   0.563142  -0.000000  -0.000000   25.0000     0.1309
   -8.000     0.000  -0.758991   0.023200   0.018197   0.041396   0.000000   0.000000   0.547911  -0.000000  -0.000000   25.0000     0.1317
   -7.500     0.000  -0.724697   0.021131   0.017257   0.038388   0.000000   0.000000   0.530884   0.000000  -0.000000   25.0000     0.1324
   -7.000     0.000  -0.685174   0.018913   0.016390   0.035304   0.000000   0.000000   0.509021  -0.000000  -0.000000   25.0000     0.1332
   -6.500     0.000  -0.644869   0.016777   0.015580   0.032357   0.000000   0.000000   0.485888  -0.000000  -0.000000   25.0000     0.1339
   -6.000     0.000  -0.601443   0.014619   0.014722   0.029341   0.000000   0.000000   0.458615   0.000000  -0.000000   25.0000     0.1344
   -5.500     0.000  -0.555109   0.012493   0.013832   0.026325   0.000000   0.000000   0.427599  -0.000000  -0.000000   25.0000     0.1347
   -5.000     0.000  -0.507597   0.010475   0.012936   0.023411   0.000000   0.000000   0.394507   0.000000   0.000000   25.0000     0.1349
   -4.500     0.000  -0.462411   0.008705   0.011919   0.020624   0.000000   0.000000   0.362904   0.000000   0.000000   25.0000     0.1351
   -4.000     0.000  -0.417023   0.007085   0.010994   0.018078   0.000000   0.000000   0.330661   0.000000   0.000000   25.0000     0.1354
   -3.500     0.000  -0.368994   0.005558   0.010660   0.016218   0.000000   0.000000   0.296409   0.000000   0.000000   25.0000     0.1358
   -3.000     0.000  -0.319268   0.004175   0.010644   0.014819   0.000000   0.000000   0.260594   0.000000   0.000000   25.0000     0.1363
   -2.500     0.000  -0.268287   0.002962   0.010683   0.013645   0.000000   0.000000   0.222981   0.000000  -0.000000   25.0000     0.1369
   -2.000     0.000  -0.216703   0.001946   0.010858   0.012804   0.000000   0.000000   0.184225   0.000000  -0.000000   25.0000     0.1375
   -1.500     0.000  -0.164655   0.001133   0.011032   0.012165   0.000000   0.000000   0.144276   0.000000  -0.000000   25.0000     0.1383
   -1.000     0.000  -0.109581   0.000506   0.011220   0.011726   0.000000   0.000000   0.100225   0.000000  -0.000000   25.0000     0.1428
   -0.500     0.000  -0.054255   0.000128   0.011419   0.011547   0.000000   0.000000   0.055372   0.000000   0.000000   25.0000     0.1520
    0.000     0.000   0.000821  -0.000000   0.011606   0.011606   0.000000  -0.000000   0.010148  -0.000000  -0.000000   25.0000     0.1584
    0.500     0.000   0.055982   0.000121   0.011417   0.011538   0.000000  -0.000000  -0.036123   0.000000   0.000000   25.0000     0.1516
    1.000     0.000   0.111395   0.000494   0.011220   0.011714   0.000000  -0.000000  -0.083180   0.000000   0.000000   25.0000     0.1425
    1.500     0.000   0.166486   0.001116   0.011037   0.012152   0.000000  -0.000000  -0.130532   0.000000   0.000000   25.0000     0.1384
    2.000     0.000   0.218656   0.001922   0.010864   0.012787   0.000000  -0.000000  -0.174967   0.000000  -0.000000   25.0000     0.1376
    2.500     0.000   0.270299   0.002936   0.010696   0.013632   0.000000  -0.000000  -0.219278   0.000000  -0.000000   25.0000     0.1370
    3.000     0.000   0.320845   0.004131   0.010718   0.014849   0.000000   0.000000  -0.262829   0.000000  -0.000000   25.0000     0.1364
    3.500     0.000   0.370282   0.005493   0.010790   0.016283   0.000000   0.000000  -0.305626   0.000000  -0.000000   25.0000     0.1358
    4.000     0.000   0.417981   0.007003   0.011161   0.018164   0.000000  -0.000000  -0.347360   0.000000  -0.000000   25.0000     0.1354
    4.500     0.000   0.463578   0.008618   0.012060   0.020678   0.000000  -0.000000  -0.387482   0.000000  -0.000000   25.0000     0.1351
    5.000     0.000   0.509047   0.010392   0.013046   0.023438   0.000000  -0.000000  -0.427843   0.000000   0.000000   25.0000     0.1349
    5.500     0.000   0.556545   0.012415   0.013906   0.026321   0.000000  -0.000000  -0.470615   0.000000  -0.000000   25.0000     0.1347
    6.000     0.000   0.602770   0.014532   0.014761   0.029294   0.000000  -0.000000  -0.512070   0.000000  -0.000000   25.0000     0.1344
    6.500     0.000   0.646025   0.016669   0.015602   0.032271   0.000000  -0.000000  -0.550461   0.000000  -0.000000   25.0000     0.1339
    7.000     0.000   0.686399   0.018789   0.016414   0.035203   0.000000  -0.000000  -0.585639   0.000000   0.000000   25.0000     0.1332
    7.500     0.000   0.725650   0.021016   0.017279   0.038295   0.000000  -0.000000  -0.619940  -0.000000  -0.000000   25.0000     0.1324
    8.000     0.000   0.759914   0.023057   0.018222   0.041279   0.000000  -0.000000  -0.649718  -0.000000  -0.000000   25.0000     0.1316
    8.500     0.000   0.792371   0.025090   0.019222   0.044311   0.000000   0.000000  -0.678229  -0.000000  -0.000000   25.0000     0.1309
    9.000     0.000   0.823876   0.027149   0.020373   0.047523   0.000000  -0.000000  -0.706074   0.000000   0.000000   25.0000     0.1302
    9.500     0.000   0.854860   0.029249   0.021565   0.050815   0.000000  -0.000000  -0.733707   0.000000  -0.000000   25.0000     0.1295
   10.000     0.000   0.883933   0.031295   0.022980   0.054275   0.000000  -0.000000  -0.759573   0.000000  -0.000000   25.0000     0.1288
   10.500     0.000   0.912372   0.033374   0.024581   0.057955   0.000000  -0.000000  -0.784976   0.000000  -0.000000   25.0000     0.1282
   11.000     0.000   0.938473   0.035354   0.026389   0.061743   0.000000  -0.000000  -0.807880  -0.000000  -0.000000   25.0000     0.1275
   11.500     0.000   0.962334   0.037263   0.028290   0.065553   0.000000  -0.000000  -0.828373   0.000000  -0.000000   25.0000     0.1267
   12.000     0.000   0.981769   0.038904   0.030570   0.069474   0.000000  -0.000000  -0.843432   0.000000  -0.000000   25.0000     0.1257


