xflr5 v6.47

Plane name :        VTOL_SINGLE_VTAIL_NACA_LAST_NO_CENTER_SECTION
Polar name :        T1-30.0 m/s-Panel_vtail_dihedral_no_center
Freestream speed :  30.000 m/s


   alpha      Beta       CL          CDi        CDv        CD         CY         Cl         Cm         Cn        Cni       QInf        XCP
  -15.000     0.000  -0.993000   0.056456   0.028289   0.084745  -0.000000  -0.000000  -0.802808  -0.000000  -0.000000   30.0000     0.0382
  -14.500     0.000  -0.965525   0.053524   0.026656   0.080180   0.000000   0.000000  -0.777030   0.000000   0.000000   30.0000     0.0398
  -14.000     0.000  -0.931947   0.049875   0.025046   0.074921   0.000000   0.000000  -0.749324   0.000000   0.000000   30.0000     0.0415
  -13.500     0.000  -0.898850   0.046469   0.023647   0.070116   0.000000  -0.000000  -0.720448  -0.000000  -0.000000   30.0000     0.0431
  -13.000     0.000  -0.864345   0.043017   0.022382   0.065399   0.000000  -0.000000  -0.690619  -0.000000  -0.000000   30.0000     0.0446
  -12.500     0.000  -0.833416   0.040195   0.021255   0.061450   0.000000   0.000000  -0.664039   0.000000   0.000000   30.0000     0.0464
  -12.000     0.000  -0.800240   0.037221   0.020380   0.057600  -0.000000  -0.000000  -0.635250  -0.000000  -0.000000   30.0000     0.0480
  -11.500     0.000  -0.763070   0.033740   0.019544   0.053284  -0.000000  -0.000000  -0.605723  -0.000000  -0.000000   30.0000     0.0494
  -11.000     0.000  -0.729433   0.030885   0.018850   0.049735   0.000000   0.000000  -0.577394   0.000000   0.000000   30.0000     0.0510
  -10.500     0.000  -0.686472   0.027311   0.018107   0.045417   0.000000   0.000000  -0.546707   0.000000   0.000000   30.0000     0.0519
  -10.000     0.000  -0.654628   0.024730   0.017577   0.042307  -0.000000  -0.000000  -0.519205  -0.000000  -0.000000   30.0000     0.0538
   -9.500     0.000  -0.620943   0.022305   0.017030   0.039335   0.000000   0.000000  -0.491122   0.000000   0.000000   30.0000     0.0553
   -9.000     0.000  -0.582574   0.020346   0.016432   0.036778   0.000000   0.000000  -0.461899   0.000000   0.000000   30.0000     0.0562
   -8.500     0.000  -0.555502   0.017872   0.015890   0.033762   0.000000  -0.000000  -0.436166  -0.000000  -0.000000   30.0000     0.0586
   -8.000     0.000  -0.522427   0.015841   0.015261   0.031102   0.000000   0.000000  -0.408598   0.000000   0.000000   30.0000     0.0602
   -7.500     0.000  -0.489003   0.013914   0.014633   0.028547  -0.000000  -0.000000  -0.380935  -0.000000  -0.000000   30.0000     0.0619
   -7.000     0.000  -0.455351   0.012100   0.014007   0.026107   0.000000  -0.000000  -0.353640  -0.000000  -0.000000   30.0000     0.0635
   -6.500     0.000  -0.421637   0.010412   0.013250   0.023662  -0.000000  -0.000000  -0.326106  -0.000000  -0.000000   30.0000     0.0652
   -6.000     0.000  -0.387576   0.008826   0.012385   0.021210  -0.000000  -0.000000  -0.298846  -0.000000  -0.000000   30.0000     0.0667
   -5.500     0.000  -0.352878   0.007311   0.011610   0.018921  -0.000000  -0.000000  -0.271421  -0.000000  -0.000000   30.0000     0.0680
   -5.000     0.000  -0.322233   0.006381   0.011102   0.017483   0.000000   0.000000  -0.244996   0.000000   0.000000   30.0000     0.0705
   -4.500     0.000  -0.286038   0.004849   0.010919   0.015768   0.000000   0.000000  -0.218147   0.000000   0.000000   30.0000     0.0712
   -4.000     0.000  -0.252492   0.003799   0.010768   0.014567   0.000000   0.000000  -0.193830   0.000000   0.000000   30.0000     0.0728
   -3.500     0.000  -0.219174   0.002885   0.010646   0.013531  -0.000000  -0.000000  -0.167659  -0.000000  -0.000000   30.0000     0.0744
   -3.000     0.000  -0.186015   0.002102   0.010615   0.012716  -0.000036  -0.001987  -0.153030   0.002112   0.002112   30.0000     0.0769
   -2.500     0.000  -0.152802   0.001446   0.010599   0.012044   0.000014   0.000544  -0.137033  -0.004371  -0.004371   30.0000     0.0781
   -2.000     0.000  -0.119249   0.000897   0.010598   0.011495   0.000000  -0.000126  -0.086641   0.000109   0.000109   30.0000     0.0800
   -1.500     0.000  -0.086889   0.000506   0.010644   0.011151  -0.000000  -0.000017  -0.059527   0.000062   0.000062   30.0000     0.0787
   -1.000     0.000  -0.054160   0.000230   0.010726   0.010957  -0.000000  -0.000006  -0.035186   0.000034   0.000034   30.0000     0.0805
   -0.500     0.000  -0.021617   0.000081   0.010803   0.010885  -0.000000  -0.000000  -0.010799  -0.000000  -0.000000   30.0000     0.0810
    0.000     0.000   0.010738   0.000057   0.010855   0.010912  -0.000000  -0.000000   0.013492  -0.000000  -0.000000   30.0000     0.0900
    0.500     0.000   0.042883   0.000157   0.010778   0.010935   0.000000   0.000000   0.038081   0.000000   0.000000   30.0000     0.0888
    1.000     0.000   0.074821   0.000380   0.010703   0.011083   0.000000   0.000000   0.062440   0.000000   0.000000   30.0000     0.0899
    1.500     0.000   0.106532   0.000723   0.010643   0.011366  -0.000001   0.000017   0.086584  -0.000010  -0.000010   30.0000     0.0913
    2.000     0.000   0.138025   0.001185   0.010629   0.011815   0.000001  -0.000021   0.110441   0.000010   0.000010   30.0000     0.0926
    2.500     0.000   0.169286   0.001767   0.010638   0.012405  -0.000000   0.000000   0.134214  -0.000000  -0.000000   30.0000     0.0941
    3.000     0.000   0.200295   0.002464   0.010662   0.013126   0.000000   0.000000   0.157593  -0.000000  -0.000000   30.0000     0.0955
    3.500     0.000   0.231043   0.003276   0.010754   0.014029  -0.000000   0.000000   0.180612  -0.000000  -0.000000   30.0000     0.0970
    4.000     0.000   0.261528   0.004200   0.010892   0.015092   0.000000  -0.000000   0.203514  -0.000000  -0.000000   30.0000     0.0984
    4.500     0.000   0.291729   0.005234   0.011081   0.016315   0.000000   0.000000   0.226118  -0.000000  -0.000000   30.0000     0.0999
    5.000     0.000   0.321641   0.006376   0.011444   0.017820   0.000000   0.000000   0.248501  -0.000000  -0.000000   30.0000     0.1013
    5.500     0.000   0.351271   0.007625   0.012118   0.019743   0.000000   0.000000   0.270816  -0.000000  -0.000000   30.0000     0.1027
    6.000     0.000   0.380581   0.008975   0.012912   0.021888   0.000000   0.000000   0.292965  -0.000000  -0.000000   30.0000     0.1041
    6.500     0.000   0.409580   0.010427   0.013710   0.024137   0.000000   0.000000   0.314829  -0.000000  -0.000000   30.0000     0.1055
    7.000     0.000   0.438158   0.011960   0.014362   0.026322  -0.000000  -0.000000   0.336268   0.000000   0.000000   30.0000     0.1069
    7.500     0.000   0.466531   0.013593   0.014972   0.028565  -0.000000  -0.000000   0.357388  -0.000000  -0.000000   30.0000     0.1083
    8.000     0.000   0.494583   0.015338   0.015589   0.030927  -0.000000   0.000000   0.378160  -0.000000  -0.000000   30.0000     0.1096
    8.500     0.000   0.522237   0.017165   0.016186   0.033351   0.000000   0.000000   0.398564  -0.000000  -0.000000   30.0000     0.1110
    9.000     0.000   0.549459   0.019074   0.016742   0.035817  -0.000000   0.000000   0.418555  -0.000000  -0.000000   30.0000     0.1123
    9.500     0.000   0.576443   0.021080   0.017278   0.038358   0.000000   0.000000   0.438167  -0.000000  -0.000000   30.0000     0.1137
   10.000     0.000   0.602788   0.023132   0.017812   0.040945  -0.000000   0.000000   0.457371  -0.000000  -0.000000   30.0000     0.1150
   10.500     0.000   0.629112   0.025314   0.018384   0.043698   0.000000   0.000000   0.476300  -0.000000  -0.000000   30.0000     0.1163
   11.000     0.000   0.654924   0.027553   0.019035   0.046588   0.000000   0.000000   0.494930  -0.000000  -0.000000   30.0000     0.1176
   11.500     0.000   0.680243   0.029850   0.019751   0.049601   0.000000   0.000000   0.513240  -0.000000  -0.000000   30.0000     0.1189
   12.000     0.000   0.705023   0.032192   0.020528   0.052720   0.000000   0.000000   0.531137  -0.000000  -0.000000   30.0000     0.1202
   12.500     0.000   0.729377   0.034582   0.021490   0.056073  -0.000000  -0.000000   0.548900   0.000000   0.000000   30.0000     0.1214
   13.000     0.000   0.753328   0.037051   0.022614   0.059664   0.000000   0.000000   0.566431  -0.000000  -0.000000   30.0000     0.1227
   13.500     0.000   0.776999   0.039603   0.023874   0.063477   0.000000   0.000000   0.583798  -0.000000  -0.000000   30.0000     0.1239
   14.000     0.000   0.800286   0.042228   0.025206   0.067434   0.000000   0.000000   0.600828  -0.000000  -0.000000   30.0000     0.1252
   14.500     0.000   0.822914   0.044864   0.026804   0.071667  -0.000000   0.000000   0.617744  -0.000000  -0.000000   30.0000     0.1264
   15.000     0.000   0.845031   0.047527   0.028604   0.076131  -0.000000  -0.000000   0.634410  -0.000000  -0.000000   30.0000     0.1276
   15.500     0.000   0.866914   0.050282   0.030853   0.081135  -0.000000   0.000000   0.651435  -0.000000  -0.000000   30.0000     0.1288
   16.000     0.000   0.888207   0.053048   0.057944   0.110992  -0.000000   0.000000   0.703787  -0.000000  -0.000000   30.0000     0.1301
   16.500     0.000   0.908527   0.055740   0.180764   0.236504   0.000000   0.000000   0.880162  -0.000000  -0.000000   30.0000     0.1312
   17.000     0.000   0.928990   0.058601   0.240543   0.299144   0.000000   0.000000   0.974025  -0.000000  -0.000000   30.0000     0.1323
   17.500     0.000   0.948706   0.061434   0.287785   0.349220   0.000000   0.000000   1.042024  -0.000000  -0.000000   30.0000     0.1335
   18.000     0.000   0.967790   0.064242   0.311488   0.375729   0.000000   0.000000   1.085553  -0.000000  -0.000000   30.0000     0.1346
   18.500     0.000   0.986484   0.067108   0.351940   0.419048  -0.000000  -0.000000   1.148281   0.000000   0.000000   30.0000     0.1357
   19.000     0.000   1.004546   0.069958   0.361776   0.431734   0.000000   0.000000   1.176091  -0.000000  -0.000000   30.0000     0.1369


