xflr5 v6.47

Plane name :        VTOL_SINGLE_VTAIL_NACA_LAST_PROJECTED
Polar name :        T5-a0.0°-30.0m/s-VLM2_vtail_projected_beta

   alpha      Beta       CL          CDi        CDv        CD         CY         Cl         Cm         Cn        Cni       QInf        XCP
    0.000     0.000   0.000278   0.000000   0.008018   0.008018  -0.000000   0.000000   0.000449   0.000000   0.000000   30.0000    -0.0886
    0.000     0.500   0.000278   0.000000   0.008018   0.008018   0.000000   0.000000   0.000449  -0.000009   0.000000   30.0000    -0.0886
    0.000     1.000   0.000278   0.000000   0.008018   0.008018   0.000000   0.000001   0.000449  -0.000018   0.000000   30.0000    -0.0886
    0.000     1.500   0.000278   0.000000   0.008018   0.008018   0.000000   0.000001   0.000448  -0.000028   0.000000   30.0000    -0.0885
    0.000     2.000   0.000278   0.000000   0.008018   0.008018   0.000000   0.000002   0.000448  -0.000037   0.000000   30.0000    -0.0885
    0.000     2.500   0.000278   0.000000   0.008018   0.008018   0.000000   0.000002   0.000447  -0.000046   0.000000   30.0000    -0.0885
    0.000     3.000   0.000278   0.000000   0.008018   0.008018   0.000000   0.000003   0.000447  -0.000055   0.000000   30.0000    -0.0885
    0.000     3.500   0.000277   0.000000   0.008018   0.008018   0.000000   0.000003   0.000446  -0.000064   0.000000   30.0000    -0.0885
    0.000     4.000   0.000277   0.000000   0.008018   0.008018   0.000000   0.000003   0.000446  -0.000073   0.000000   30.0000    -0.0885
    0.000     4.500   0.000277   0.000000   0.008018   0.008018   0.000000   0.000004   0.000445  -0.000082   0.000000   30.0000    -0.0885
    0.000     5.000   0.000276   0.000000   0.008018   0.008018   0.000000   0.000004   0.000444  -0.000092   0.000000   30.0000    -0.0885
    0.000     5.500   0.000276   0.000000   0.008018   0.008018   0.000000   0.000005   0.000443  -0.000101   0.000000   30.0000    -0.0884
    0.000     6.000   0.000275   0.000000   0.008018   0.008018   0.000000   0.000005   0.000442  -0.000110   0.000000   30.0000    -0.0884
    0.000     6.500   0.000275   0.000000   0.008018   0.008018   0.000000   0.000006   0.000440  -0.000119   0.000000   30.0000    -0.0884
    0.000     7.000   0.000274   0.000000   0.008018   0.008018   0.000000   0.000006   0.000439  -0.000128   0.000000   30.0000    -0.0884
    0.000     7.500   0.000273   0.000000   0.008018   0.008018   0.000000   0.000006   0.000438  -0.000137   0.000000   30.0000    -0.0883
    0.000     8.000   0.000273   0.000000   0.008018   0.008018   0.000000   0.000007   0.000436  -0.000146   0.000000   30.0000    -0.0883
    0.000     8.500   0.000272   0.000000   0.008018   0.008018   0.000000   0.000007   0.000435  -0.000155   0.000000   30.0000    -0.0883
    0.000     9.000   0.000271   0.000000   0.008018   0.008018   0.000000   0.000008   0.000433  -0.000164   0.000000   30.0000    -0.0883
    0.000     9.500   0.000270   0.000000   0.008018   0.008018   0.000000   0.000008   0.000431  -0.000173   0.000000   30.0000    -0.0882
    0.000    10.000   0.000269   0.000000   0.008018   0.008018   0.000000   0.000008   0.000429  -0.000182   0.000000   30.0000    -0.0882
    0.000    10.500   0.000268   0.000000   0.008018   0.008018   0.000000   0.000009   0.000427  -0.000191   0.000000   30.0000    -0.0882
    0.000    11.000   0.000267   0.000000   0.008018   0.008018   0.000000   0.000009   0.000425  -0.000200   0.000000   30.0000    -0.0881
    0.000    11.500   0.000266   0.000000   0.008018   0.008018   0.000000   0.000010   0.000423  -0.000209   0.000000   30.0000    -0.0881
    0.000    12.000   0.000265   0.000000   0.008018   0.008018   0.000000   0.000010   0.000421  -0.000218   0.000000   30.0000    -0.0881
    0.000    12.500   0.000264   0.000000   0.008018   0.008018   0.000000   0.000010   0.000418  -0.000227   0.000000   30.0000    -0.0880
    0.000    13.000   0.000263   0.000000   0.008018   0.008018   0.000000   0.000011   0.000416  -0.000236   0.000000   30.0000    -0.0880
    0.000    13.500   0.000262   0.000000   0.008018   0.008018   0.000000   0.000011   0.000414  -0.000245   0.000000   30.0000    -0.0879
    0.000    14.000   0.000261   0.000000   0.008018   0.008018   0.000000   0.000011   0.000411  -0.000254   0.000000   30.0000    -0.0879
    0.000    14.500   0.000260   0.000000   0.008018   0.008018   0.000000   0.000012   0.000408  -0.000263   0.000000   30.0000    -0.0879
    0.000    15.000   0.000258   0.000000   0.008018   0.008018   0.000000   0.000012   0.000406  -0.000272   0.000000   30.0000    -0.0878
    0.000    15.500   0.000257   0.000000   0.008018   0.008018   0.000000   0.000012   0.000403  -0.000281   0.000000   30.0000    -0.0878
    0.000    16.000   0.000256   0.000000   0.008018   0.008018   0.000000   0.000013   0.000400  -0.000290   0.000000   30.0000    -0.0877
    0.000    16.500   0.000254   0.000000   0.008018   0.008018   0.000000   0.000013   0.000397  -0.000298   0.000000   30.0000    -0.0877
    0.000    17.000   0.000253   0.000000   0.008018   0.008018   0.000000   0.000013   0.000394  -0.000307   0.000000   30.0000    -0.0876
    0.000    17.500   0.000251   0.000000   0.008018   0.008018   0.000000   0.000014   0.000391  -0.000316   0.000000   30.0000    -0.0876
    0.000    18.000   0.000250   0.000000   0.008018   0.008018   0.000000   0.000014   0.000388  -0.000325   0.000000   30.0000    -0.0876
    0.000    18.500   0.000248   0.000000   0.008018   0.008018   0.000000   0.000014   0.000385  -0.000333   0.000000   30.0000    -0.0875
    0.000    19.000   0.000247   0.000000   0.008018   0.008018   0.000000   0.000014   0.000382  -0.000342   0.000000   30.0000    -0.0875
    0.000    19.500   0.000245   0.000000   0.008018   0.008018   0.000000   0.000015   0.000378  -0.000351   0.000000   30.0000    -0.0874
    0.000    20.000   0.000243   0.000000   0.008018   0.008018   0.000000   0.000015   0.000375  -0.000359   0.000000   30.0000    -0.0874
    0.000    20.500   0.000242   0.000000   0.008018   0.008018   0.000000   0.000015   0.000371  -0.000368   0.000000   30.0000    -0.0874
    0.000    21.000   0.000240   0.000000   0.008018   0.008018   0.000000   0.000015   0.000368  -0.000377   0.000000   30.0000    -0.0873
    0.000    21.500   0.000238   0.000000   0.008018   0.008018   0.000000   0.000016   0.000364  -0.000385   0.000000   30.0000    -0.0873
    0.000    22.000   0.000236   0.000000   0.008018   0.008018   0.000000   0.000016   0.000361  -0.000394   0.000000   30.0000    -0.0873
    0.000    22.500   0.000234   0.000000   0.008018   0.008018   0.000000   0.000016   0.000357  -0.000402   0.000000   30.0000    -0.0872
    0.000    23.000   0.000233   0.000000   0.008018   0.008018   0.000000   0.000016   0.000353  -0.000411   0.000000   30.0000    -0.0872
    0.000    23.500   0.000231   0.000000   0.008018   0.008018   0.000000   0.000016   0.000350  -0.000419   0.000000   30.0000    -0.0872
    0.000    24.000   0.000229   0.000000   0.008018   0.008018   0.000000   0.000017   0.000346  -0.000427   0.000000   30.0000    -0.0872
    0.000    24.500   0.000227   0.000000   0.008018   0.008018   0.000000   0.000017   0.000342  -0.000436   0.000000   30.0000    -0.0871
    0.000    25.000   0.000225   0.000000   0.008018   0.008018   0.000000   0.000017   0.000338  -0.000444   0.000000   30.0000    -0.0871
    0.000    25.500   0.000223   0.000000   0.008018   0.008018   0.000000   0.000017   0.000334  -0.000452   0.000000   30.0000    -0.0871
    0.000    26.000   0.000221   0.000000   0.008018   0.008018   0.000000   0.000017   0.000330  -0.000461   0.000000   30.0000    -0.0871
    0.000    26.500   0.000219   0.000000   0.008018   0.008018   0.000000   0.000018   0.000326  -0.000469   0.000000   30.0000    -0.0871
    0.000    27.000   0.000217   0.000000   0.008018   0.008018   0.000000   0.000018   0.000322  -0.000477   0.000000   30.0000    -0.0871
    0.000    27.500   0.000215   0.000000   0.008018   0.008018   0.000000   0.000018   0.000318  -0.000485   0.000000   30.0000    -0.0871
    0.000    28.000   0.000212   0.000000   0.008018   0.008018   0.000000   0.000018   0.000314  -0.000493   0.000000   30.0000    -0.0871
    0.000    28.500   0.000210   0.000000   0.008018   0.008018   0.000000   0.000018   0.000310  -0.000501   0.000000   30.0000    -0.0871
    0.000    29.000   0.000208   0.000000   0.008018   0.008018   0.000000   0.000018   0.000306  -0.000509   0.000000   30.0000    -0.0871
    0.000    29.500   0.000206   0.000000   0.008018   0.008018   0.000000   0.000018   0.000302  -0.000517   0.000000   30.0000    -0.0871
    0.000    30.000   0.000204   0.000000   0.008018   0.008018   0.000000   0.000018   0.000298  -0.000525   0.000000   30.0000    -0.0872


