xflr5 v6.47

Plane name :        VTOL_SINGLE_TWIN_VERTICAL_EQUIVALENT_VTAIL2_NACA_LAST
Polar name :        T5-a0.0°-30.0m/s-Panel_Twin_Vertical_equiv2

   alpha      Beta       CL          CDi        CDv        CD         CY         Cl         Cm         Cn        Cni       QInf        XCP
    0.000   -18.000   0.033474   0.040567   0.025728   0.066295   0.385666   0.086441   0.169239   0.034922   0.038333   30.0000    -0.4964
    0.000   -17.500   0.032274   0.038365   0.018111   0.056477   0.375241   0.084309   0.152893   0.036975   0.037270   30.0000    -0.4861
    0.000   -17.000   0.031104   0.036225   0.015821   0.052046   0.364790   0.082154   0.142928   0.036682   0.036208   30.0000    -0.4753
    0.000   -16.500   0.029964   0.034145   0.015329   0.049473   0.354316   0.079978   0.134990   0.035627   0.035145   30.0000    -0.4640
    0.000   -16.000   0.028856   0.032125   0.014909   0.047034   0.343817   0.077782   0.127330   0.034541   0.034083   30.0000    -0.4521
    0.000   -15.500   0.027778   0.030167   0.014542   0.044708   0.333297   0.075564   0.119915   0.033457   0.033020   30.0000    -0.4396
    0.000   -15.000   0.026732   0.028269   0.014202   0.042471   0.322754   0.073328   0.112728   0.032380   0.031958   30.0000    -0.4264
    0.000   -14.500   0.025718   0.026433   0.013885   0.040318   0.312190   0.071071   0.105773   0.031303   0.030895   30.0000    -0.4126
    0.000   -14.000   0.024735   0.024658   0.013620   0.038278   0.301606   0.068797   0.099071   0.030219   0.029832   30.0000    -0.3982
    0.000   -13.500   0.023785   0.022944   0.013372   0.036316   0.291003   0.066504   0.092596   0.029141   0.028769   30.0000    -0.3830
    0.000   -13.000   0.022868   0.021292   0.013151   0.034443   0.280385   0.064194   0.086357   0.028058   0.027706   30.0000    -0.3672
    0.000   -12.500   0.021982   0.019701   0.012947   0.032648   0.269741   0.061866   0.080339   0.026979   0.026642   30.0000    -0.3506
    0.000   -12.000   0.021130   0.018172   0.012763   0.030935   0.259084   0.059522   0.074556   0.025902   0.025579   30.0000    -0.3333
    0.000   -11.500   0.020310   0.016704   0.012594   0.029298   0.248411   0.057163   0.069003   0.024821   0.024515   30.0000    -0.3153
    0.000   -11.000   0.019524   0.015298   0.012433   0.027731   0.237722   0.054788   0.063674   0.023740   0.023451   30.0000    -0.2966
    0.000   -10.500   0.018772   0.013954   0.012280   0.026234   0.227018   0.052399   0.058569   0.022659   0.022387   30.0000    -0.2772
    0.000   -10.000   0.018053   0.012672   0.012128   0.024800   0.216300   0.049996   0.053685   0.021577   0.021323   30.0000    -0.2571
    0.000    -9.500   0.017368   0.011452   0.011986   0.023438   0.205569   0.047580   0.049033   0.020495   0.020258   30.0000    -0.2364
    0.000    -9.000   0.016717   0.010294   0.011852   0.022147   0.194824   0.045151   0.044611   0.019412   0.019194   30.0000    -0.2152
    0.000    -8.500   0.016100   0.009199   0.011715   0.020914   0.184068   0.042710   0.040410   0.018327   0.018129   30.0000    -0.1934
    0.000    -8.000   0.015517   0.008165   0.011574   0.019740   0.173301   0.040258   0.036431   0.017242   0.017064   30.0000    -0.1713
    0.000    -7.500   0.014969   0.007194   0.011440   0.018634   0.162523   0.037795   0.032691   0.016160   0.015999   30.0000    -0.1489
    0.000    -7.000   0.014455   0.006285   0.011309   0.017594   0.151734   0.035322   0.029183   0.015082   0.014933   30.0000    -0.1264
    0.000    -6.500   0.013976   0.005439   0.011196   0.016634   0.140937   0.032840   0.025925   0.014008   0.013868   30.0000    -0.1039
    0.000    -6.000   0.013532   0.004655   0.011115   0.015769   0.130131   0.030348   0.022929   0.012940   0.012802   30.0000    -0.0816
    0.000    -5.500   0.013123   0.003933   0.011060   0.014993   0.119317   0.027849   0.020187   0.011863   0.011737   30.0000    -0.0598
    0.000    -5.000   0.012749   0.003274   0.011011   0.014286   0.108496   0.025343   0.017683   0.010784   0.010671   30.0000    -0.0385
    0.000    -4.500   0.012410   0.002678   0.010965   0.013643   0.097668   0.022829   0.015414   0.009705   0.009605   30.0000    -0.0182
    0.000    -4.000   0.012106   0.002144   0.010924   0.013068   0.086835   0.020310   0.013385   0.008628   0.008539   30.0000     0.0009
    0.000    -3.500   0.011838   0.001673   0.010892   0.012565   0.075996   0.017785   0.011596   0.007550   0.007472   30.0000     0.0187
    0.000    -3.000   0.011605   0.001265   0.010863   0.012128   0.065152   0.015255   0.010045   0.006471   0.006406   30.0000     0.0347
    0.000    -2.500   0.011407   0.000919   0.010838   0.011757   0.054305   0.012722   0.008731   0.005393   0.005340   30.0000     0.0489
    0.000    -2.000   0.011245   0.000636   0.010820   0.011456   0.043454   0.010184   0.007659   0.004317   0.004273   30.0000     0.0608
    0.000    -1.500   0.011118   0.000416   0.010809   0.011225   0.032601   0.007645   0.006830   0.003241   0.003207   30.0000     0.0703
    0.000    -1.000   0.011026   0.000259   0.010806   0.011065   0.021746   0.005103   0.006242   0.002164   0.002140   30.0000     0.0772
    0.000    -0.500   0.010971   0.000164   0.010808   0.010972   0.010889   0.002559   0.005893   0.001087   0.001074   30.0000     0.0815
    0.000     0.000   0.010951   0.000133   0.010812   0.010945   0.000032   0.000016   0.005779   0.000007   0.000007   30.0000     0.0829
    0.000     0.500   0.010966   0.000164   0.010808   0.010971  -0.010826  -0.002528   0.005890  -0.001072  -0.001059   30.0000     0.0815
    0.000     1.000   0.011017   0.000258   0.010806   0.011063  -0.021682  -0.005072   0.006235  -0.002149  -0.002126   30.0000     0.0773
    0.000     1.500   0.011103   0.000414   0.010809   0.011223  -0.032538  -0.007613   0.006820  -0.003226  -0.003192   30.0000     0.0703
    0.000     2.000   0.011225   0.000634   0.010820   0.011453  -0.043392  -0.010153   0.007646  -0.004303  -0.004259   30.0000     0.0608
    0.000     2.500   0.011383   0.000916   0.010837   0.011753  -0.054243  -0.012690   0.008714  -0.005379  -0.005325   30.0000     0.0489
    0.000     3.000   0.011576   0.001261   0.010863   0.012124  -0.065090  -0.015224   0.010025  -0.006456  -0.006391   30.0000     0.0347
    0.000     3.500   0.011804   0.001669   0.010892   0.012560  -0.075934  -0.017754   0.011573  -0.007535  -0.007458   30.0000     0.0186
    0.000     4.000   0.012068   0.002139   0.010924   0.013063  -0.086774  -0.020279   0.013358  -0.008613  -0.008524   30.0000     0.0008
    0.000     4.500   0.012367   0.002672   0.010965   0.013637  -0.097608  -0.022798   0.015384  -0.009690  -0.009590   30.0000    -0.0184
    0.000     5.000   0.012701   0.003268   0.011011   0.014279  -0.108436  -0.025312   0.017649  -0.010769  -0.010656   30.0000    -0.0388
    0.000     5.500   0.013070   0.003926   0.011059   0.014985  -0.119258  -0.027818   0.020150  -0.011848  -0.011721   30.0000    -0.0601
    0.000     6.000   0.013475   0.004647   0.011114   0.015761  -0.130072  -0.030317   0.022888  -0.012925  -0.012787   30.0000    -0.0821
    0.000     6.500   0.013914   0.005430   0.011195   0.016625  -0.140879  -0.032808   0.025881  -0.013992  -0.013853   30.0000    -0.1045
    0.000     7.000   0.014388   0.006276   0.011308   0.017584  -0.151677  -0.035291   0.029136  -0.015066  -0.014918   30.0000    -0.1272
    0.000     7.500   0.014897   0.007184   0.011439   0.018623  -0.162466  -0.037764   0.032640  -0.016144  -0.015983   30.0000    -0.1498
    0.000     8.000   0.015441   0.008154   0.011574   0.019728  -0.173246  -0.040227   0.036377  -0.017226  -0.017048   30.0000    -0.1723
    0.000     8.500   0.016019   0.009187   0.011715   0.020902  -0.184014  -0.042679   0.040352  -0.018311  -0.018113   30.0000    -0.1946
    0.000     9.000   0.016631   0.010282   0.011852   0.022134  -0.194772  -0.045120   0.044550  -0.019395  -0.019177   30.0000    -0.2165
    0.000     9.500   0.017278   0.011439   0.011986   0.023425  -0.205517  -0.047548   0.048968  -0.020479  -0.020242   30.0000    -0.2378
    0.000    10.000   0.017958   0.012659   0.012128   0.024786  -0.216250  -0.049965   0.053617  -0.021560  -0.021306   30.0000    -0.2586
    0.000    10.500   0.018672   0.013940   0.012279   0.026219  -0.226969  -0.052368   0.058497  -0.022642  -0.022370   30.0000    -0.2788
    0.000    11.000   0.019420   0.015283   0.012432   0.027715  -0.237674  -0.054757   0.063598  -0.023723  -0.023434   30.0000    -0.2984
    0.000    11.500   0.020202   0.016688   0.012594   0.029282  -0.248365  -0.057131   0.068924  -0.024804  -0.024498   30.0000    -0.3172
    0.000    12.000   0.021017   0.018155   0.012762   0.030917  -0.259039  -0.059491   0.074473  -0.025884  -0.025561   30.0000    -0.3353
    0.000    12.500   0.021865   0.019683   0.012946   0.032630  -0.269698  -0.061834   0.080252  -0.026961  -0.026624   30.0000    -0.3527
    0.000    13.000   0.022746   0.021274   0.013150   0.034424  -0.280343  -0.064163   0.086267  -0.028040  -0.027688   30.0000    -0.3693
    0.000    13.500   0.023659   0.022925   0.013371   0.036295  -0.290963  -0.066472   0.092502  -0.029122  -0.028750   30.0000    -0.3852
    0.000    14.000   0.024605   0.024638   0.013619   0.038256  -0.301568  -0.068765   0.098974  -0.030200  -0.029813   30.0000    -0.4005
    0.000    14.500   0.025583   0.026412   0.013884   0.040296  -0.312154  -0.071040   0.105672  -0.031284  -0.030876   30.0000    -0.4150
    0.000    15.000   0.026593   0.028247   0.014200   0.042447  -0.322720  -0.073296   0.112622  -0.032361  -0.031938   30.0000    -0.4288
    0.000    15.500   0.027635   0.030144   0.014540   0.044684  -0.333265  -0.075533   0.119806  -0.033437  -0.033000   30.0000    -0.4420
    0.000    16.000   0.028708   0.032101   0.014907   0.047008  -0.343788  -0.077750   0.127216  -0.034520  -0.034063   30.0000    -0.4546
    0.000    16.500   0.029812   0.034120   0.015326   0.049446  -0.354288  -0.079947   0.134872  -0.035607  -0.035125   30.0000    -0.4665
    0.000    17.000   0.030948   0.036199   0.015818   0.052017  -0.364765  -0.082122   0.142806  -0.036661  -0.036187   30.0000    -0.4779
    0.000    17.500   0.032113   0.038338   0.018108   0.056447  -0.375217  -0.084277   0.152767  -0.036954  -0.037249   30.0000    -0.4887
    0.000    18.000   0.033309   0.040539   0.025722   0.066261  -0.385645  -0.086409   0.169106  -0.034901  -0.038311   30.0000    -0.4990


