xflr5 v6.47

Plane name :        elevator
Polar name :        T1-32.0 m/s-VLM2-0.8kg-x0.096m-z0.1m
Freestream speed :  32.000 m/s


   alpha      Beta       CL          CDi        CDv        CD         CY         Cl         Cm         Cn        Cni       QInf        XCP
  -10.000     0.000  -0.437295   0.015398   0.016143   0.031542   0.000000   0.000000  -0.057327   0.000000   0.000000   32.0000     0.0728
   -9.500     0.000  -0.408613   0.013446   0.013657   0.027103   0.000000   0.000000  -0.056886   0.000000   0.000000   32.0000     0.0711
   -9.000     0.000  -0.379842   0.011619   0.013012   0.024631   0.000000   0.000000  -0.056690   0.000000   0.000000   32.0000     0.0691
   -8.500     0.000  -0.350987   0.009922   0.012239   0.022161   0.000000   0.000000  -0.056415   0.000000   0.000000   32.0000     0.0668
   -8.000     0.000  -0.322055   0.008354   0.010457   0.018811   0.000000   0.000000  -0.056407   0.000000   0.000000   32.0000     0.0641
   -7.500     0.000  -0.293050   0.006917   0.011674   0.018591   0.000000   0.000000  -0.056228   0.000000   0.000000   32.0000     0.0609
   -7.000     0.000  -0.263979   0.005613   0.009318   0.014931   0.000000   0.000000  -0.055859   0.000000   0.000000   32.0000     0.0570
   -6.500     0.000  -0.234847   0.004442   0.010889   0.015331   0.000000   0.000000  -0.055799   0.000000   0.000000   32.0000     0.0521
   -6.000     0.000  -0.205659   0.003406   0.008520   0.011927   0.000000   0.000000  -0.055470   0.000000   0.000000   32.0000     0.0459
   -5.500     0.000  -0.176423   0.002506   0.010495   0.013001   0.000000   0.000000  -0.055433   0.000000   0.000000   32.0000     0.0375
   -5.000     0.000  -0.147143   0.001743   0.008095   0.009838   0.000000   0.000000  -0.054946   0.000000   0.000000   32.0000     0.0259
   -4.500     0.000  -0.117825   0.001118   0.008717   0.009835   0.000000   0.000000  -0.054733   0.000000   0.000000   32.0000     0.0086
   -4.000     0.000  -0.088476   0.000630   0.008382   0.009013   0.000000   0.000000  -0.054712   0.000000   0.000000   32.0000    -0.0203
   -3.500     0.000  -0.059100   0.000282   0.008034   0.008316   0.000000   0.000000  -0.054499   0.000000   0.000000   32.0000    -0.0779
   -3.000     0.000  -0.029705   0.000073   0.008132   0.008205   0.000000   0.000000  -0.054521   0.000000   0.000000   32.0000    -0.2494
   -2.500     0.000  -0.000295   0.000003   0.006641   0.006645   0.000000   0.000000  -0.054457   0.000000   0.000000   32.0000   -34.6197
   -2.000     0.000   0.029123   0.000074   0.007771   0.007845   0.000000   0.000000  -0.054868   0.000000   0.000000   32.0000     0.4471
   -1.500     0.000   0.058543   0.000284   0.005642   0.005926   0.000000   0.000000  -0.054649   0.000000   0.000000   32.0000     0.2703
   -1.000     0.000   0.087960   0.000635   0.005424   0.006059   0.000000   0.000000  -0.054602  -0.000000  -0.000000   32.0000     0.2118
   -0.500     0.000   0.117368   0.001126   0.006693   0.007819   0.000000   0.000000  -0.054688  -0.000000  -0.000000   32.0000     0.1826
    0.000     0.000   0.146760   0.001757   0.005123   0.006880  -0.000000   0.000000  -0.054548  -0.000000  -0.000000   32.0000     0.1651
    0.500     0.000   0.176131   0.002527   0.005422   0.007949  -0.000000   0.000000  -0.054639  -0.000000  -0.000000   32.0000     0.1534
    1.000     0.000   0.205475   0.003437   0.005003   0.008440  -0.000000   0.000000  -0.054551  -0.000000  -0.000000   32.0000     0.1451
    1.500     0.000   0.234786   0.004486   0.006835   0.011321  -0.000000   0.000000  -0.054425  -0.000000  -0.000000   32.0000     0.1389
    2.000     0.000   0.264058   0.005673   0.008361   0.014034  -0.000000   0.000000  -0.054483  -0.000000  -0.000000   32.0000     0.1341
    2.500     0.000   0.293285   0.006998   0.008607   0.015604  -0.000000   0.000000  -0.054498  -0.000000  -0.000000   32.0000     0.1302
    3.000     0.000   0.322462   0.008459   0.008847   0.017306  -0.000000   0.000000  -0.054519  -0.000000  -0.000000   32.0000     0.1271
    3.500     0.000   0.351582   0.010056   0.009042   0.019098  -0.000000   0.000000  -0.054582  -0.000000  -0.000000   32.0000     0.1245
    4.000     0.000   0.380640   0.011789   0.009217   0.021006  -0.000000   0.000000  -0.054672  -0.000000  -0.000000   32.0000     0.1223
    4.500     0.000   0.409630   0.013655   0.009362   0.023016  -0.000000   0.000000  -0.054801  -0.000000  -0.000000   32.0000     0.1204
    5.000     0.000   0.438547   0.015653   0.009500   0.025153  -0.000000   0.000000  -0.054951  -0.000000  -0.000000   32.0000     0.1188
    5.500     0.000   0.467384   0.017783   0.009634   0.027417  -0.000000   0.000000  -0.055125  -0.000000  -0.000000   32.0000     0.1174
    6.000     0.000   0.496137   0.020043   0.009791   0.029834  -0.000000   0.000000  -0.055313  -0.000000  -0.000000   32.0000     0.1161
    6.500     0.000   0.524798   0.022431   0.009949   0.032380  -0.000000   0.000000  -0.055532  -0.000000  -0.000000   32.0000     0.1151
    7.000     0.000   0.553364   0.024946   0.010131   0.035077  -0.000000   0.000000  -0.055763  -0.000000  -0.000000   32.0000     0.1141
    7.500     0.000   0.581828   0.027586   0.010336   0.037922  -0.000000   0.000000  -0.056012  -0.000000  -0.000000   32.0000     0.1132
    8.000     0.000   0.610185   0.030349   0.010556   0.040905  -0.000000   0.000000  -0.056278  -0.000000  -0.000000   32.0000     0.1125
    8.500     0.000   0.638429   0.033234   0.010790   0.044023  -0.000000   0.000000  -0.056561  -0.000000  -0.000000   32.0000     0.1118
    9.000     0.000   0.666556   0.036238   0.011026   0.047263  -0.000000   0.000000  -0.056869  -0.000000  -0.000000   32.0000     0.1112
    9.500     0.000   0.694559   0.039359   0.011275   0.050634  -0.000000   0.000000  -0.057197  -0.000000  -0.000000   32.0000     0.1106
   10.000     0.000   0.722434   0.042595   0.011539   0.054134  -0.000000   0.000000  -0.057543  -0.000000  -0.000000   32.0000     0.1101
   10.500     0.000   0.750175   0.045944   0.011816   0.057760  -0.000000   0.000000  -0.057906  -0.000000  -0.000000   32.0000     0.1097
   11.000     0.000   0.777777   0.049404   0.012119   0.061523  -0.000000   0.000000  -0.058285  -0.000000  -0.000000   32.0000     0.1093
   11.500     0.000   0.805236   0.052971   0.012445   0.065416  -0.000000   0.000000  -0.058683  -0.000000  -0.000000   32.0000     0.1089
   12.000     0.000   0.832546   0.056645   0.012822   0.069467  -0.000000   0.000000  -0.059096  -0.000000  -0.000000   32.0000     0.1086
   12.500     0.000   0.859702   0.060421   0.013263   0.073684  -0.000000   0.000000  -0.059528  -0.000000  -0.000000   32.0000     0.1083
   13.000     0.000   0.886699   0.064297   0.013792   0.078089  -0.000000   0.000000  -0.059977  -0.000000  -0.000000   32.0000     0.1080
   13.500     0.000   0.913533   0.068271   0.014415   0.082685  -0.000000   0.000000  -0.060442  -0.000000  -0.000000   32.0000     0.1077
   14.000     0.000   0.940199   0.072339   0.015138   0.087477  -0.000000   0.000000  -0.060922  -0.000000  -0.000000   32.0000     0.1075
   14.500     0.000   0.966693   0.076499   0.015971   0.092470  -0.000000   0.000000  -0.061413  -0.000000  -0.000000   32.0000     0.1073
   15.000     0.000   0.993009   0.080748   0.016895   0.097643  -0.000000   0.000000  -0.061915  -0.000000  -0.000000   32.0000     0.1072
   15.500     0.000   1.019143   0.085082   0.017872   0.102954  -0.000000   0.000000  -0.062426  -0.000000  -0.000000   32.0000     0.1070
   16.000     0.000   1.045092   0.089499   0.018878   0.108377  -0.000000   0.000000  -0.062945  -0.000000  -0.000000   32.0000     0.1069
   16.500     0.000   1.070851   0.093995   0.019911   0.113906  -0.000000   0.000000  -0.063474  -0.000000  -0.000000   32.0000     0.1068
   17.000     0.000   1.096414   0.098567   0.021014   0.119582  -0.000000   0.000000  -0.064003  -0.000000  -0.000000   32.0000     0.1067
   17.500     0.000   1.121780   0.103212   0.022239   0.125451  -0.000000   0.000000  -0.064530  -0.000000  -0.000000   32.0000     0.1066
   18.000     0.000   1.146943   0.107926   0.023644   0.131570  -0.000000   0.000000  -0.065044  -0.000000  -0.000000   32.0000     0.1065
   18.500     0.000   1.171899   0.112706   0.025390   0.138096  -0.000000   0.000000  -0.065530  -0.000000  -0.000000   32.0000     0.1064
   19.000     0.000   1.196646   0.117548   0.027567   0.145115  -0.000000   0.000000  -0.065976  -0.000000  -0.000000   32.0000     0.1064
   19.500     0.000   1.221178   0.122449   0.030188   0.152638  -0.000000   0.000000  -0.066410  -0.000000  -0.000000   32.0000     0.1064
   20.000     0.000   1.245493   0.127406   0.033682   0.161087  -0.000000   0.000000  -0.066782  -0.000000  -0.000000   32.0000     0.1064
   20.500     0.000   1.269587   0.132413   0.039503   0.171916  -0.000000   0.000000  -0.066926  -0.000000  -0.000000   32.0000     0.1063


