xflr5 v6.47

Plane name :        COLA 0012
Polar name :        T1-32.0 m/s-VLM2
Freestream speed :  32.000 m/s


   alpha      Beta       CL          CDi        CDv        CD         CY         Cl         Cm         Cn        Cni       QInf        XCP
  -10.000     0.000  -0.578354   0.027706   0.012906   0.040612   0.000000   0.000000   0.257505  -0.000000  -0.000000   32.0000     0.0978
   -9.500     0.000  -0.550173   0.025070   0.012545   0.037615   0.000000   0.000000   0.247639  -0.000000  -0.000000   32.0000     0.0977
   -9.000     0.000  -0.521881   0.022556   0.012239   0.034795   0.000000   0.000000   0.237487  -0.000000  -0.000000   32.0000     0.0976
   -8.500     0.000  -0.493484   0.020167   0.011961   0.032128   0.000000   0.000000   0.227039  -0.000000  -0.000000   32.0000     0.0976
   -8.000     0.000  -0.464985   0.017903   0.011707   0.029611   0.000000   0.000000   0.216289  -0.000000  -0.000000   32.0000     0.0975
   -7.500     0.000  -0.436392   0.015768   0.011463   0.027231   0.000000   0.000000   0.205232  -0.000000  -0.000000   32.0000     0.0974
   -7.000     0.000  -0.407710   0.013763   0.011225   0.024987   0.000000   0.000000   0.193870  -0.000000  -0.000000   32.0000     0.0974
   -6.500     0.000  -0.378944   0.011889   0.010991   0.022880   0.000000   0.000000   0.182204  -0.000000  -0.000000   32.0000     0.0973
   -6.000     0.000  -0.350100   0.010147   0.010759   0.020906   0.000000   0.000000   0.170237  -0.000000  -0.000000   32.0000     0.0972
   -5.500     0.000  -0.321184   0.008540   0.010531   0.019071   0.000000   0.000000   0.157972  -0.000000  -0.000000   32.0000     0.0972
   -5.000     0.000  -0.292201   0.007068   0.010305   0.017373   0.000000   0.000000   0.145411  -0.000000  -0.000000   32.0000     0.0971
   -4.500     0.000  -0.263158   0.005732   0.010078   0.015811   0.000000   0.000000   0.132558  -0.000000  -0.000000   32.0000     0.0971
   -4.000     0.000  -0.234059   0.004535   0.009847   0.014382   0.000000   0.000000   0.119416  -0.000000  -0.000000   32.0000     0.0971
   -3.500     0.000  -0.204912   0.003476   0.009617   0.013093   0.000000   0.000000   0.105990  -0.000000  -0.000000   32.0000     0.0970
   -3.000     0.000  -0.175721   0.002556   0.009399   0.011955   0.000000   0.000000   0.092287  -0.000000  -0.000000   32.0000     0.0970
   -2.500     0.000  -0.146493   0.001776   0.009188   0.010965   0.000000   0.000000   0.078311  -0.000000  -0.000000   32.0000     0.0970
   -2.000     0.000  -0.117234   0.001138   0.009002   0.010139   0.000000   0.000000   0.064073  -0.000000  -0.000000   32.0000     0.0970
   -1.500     0.000  -0.087949   0.000640   0.008841   0.009482   0.000000   0.000000   0.049579  -0.000000  -0.000000   32.0000     0.0969
   -1.000     0.000  -0.058644   0.000285   0.008714   0.008999   0.000000   0.000000   0.034838  -0.000000  -0.000000   32.0000     0.0969
   -0.500     0.000  -0.029326   0.000071   0.008645   0.008716   0.000000   0.000000   0.019867  -0.000000  -0.000000   32.0000     0.0969
    0.000     0.000  -0.000000   0.000000   0.008598   0.008598  -0.000000  -0.000000   0.004651   0.000000   0.000000   32.0000     0.1776
    0.500     0.000   0.029328   0.000071   0.008645   0.008716  -0.000000  -0.000000  -0.010766   0.000000   0.000000   32.0000     0.0969
    1.000     0.000   0.058651   0.000285   0.008715   0.008999  -0.000000  -0.000000  -0.026419   0.000000   0.000000   32.0000     0.0969
    1.500     0.000   0.087964   0.000641   0.008842   0.009482  -0.000000  -0.000000  -0.042287   0.000000   0.000000   32.0000     0.0969
    2.000     0.000   0.117261   0.001139   0.009003   0.010141  -0.000000  -0.000000  -0.058377   0.000000   0.000000   32.0000     0.0969
    2.500     0.000   0.146535   0.001778   0.009190   0.010968  -0.000000  -0.000000  -0.074690   0.000000   0.000000   32.0000     0.0969
    3.000     0.000   0.175782   0.002559   0.009400   0.011959  -0.000000  -0.000000  -0.091224   0.000000   0.000000   32.0000     0.0970
    3.500     0.000   0.204995   0.003481   0.009618   0.013099  -0.000000  -0.000000  -0.107979   0.000000   0.000000   32.0000     0.0970
    4.000     0.000   0.234167   0.004542   0.009850   0.014392  -0.000000  -0.000000  -0.124950   0.000000   0.000000   32.0000     0.0970
    4.500     0.000   0.263294   0.005743   0.010083   0.015826  -0.000000  -0.000000  -0.142134   0.000000   0.000000   32.0000     0.0971
    5.000     0.000   0.292370   0.007083   0.010312   0.017395  -0.000000  -0.000000  -0.159528   0.000000   0.000000   32.0000     0.0971
    5.500     0.000   0.321388   0.008559   0.010540   0.019099  -0.000000  -0.000000  -0.177125   0.000000   0.000000   32.0000     0.0971
    6.000     0.000   0.350342   0.010173   0.010769   0.020942  -0.000000  -0.000000  -0.194921   0.000000   0.000000   32.0000     0.0972
    6.500     0.000   0.379228   0.011921   0.011003   0.022924  -0.000000  -0.000000  -0.212907   0.000000   0.000000   32.0000     0.0972
    7.000     0.000   0.408038   0.013803   0.011239   0.025042  -0.000000  -0.000000  -0.231080   0.000000   0.000000   32.0000     0.0973
    7.500     0.000   0.436769   0.015818   0.011480   0.027298  -0.000000  -0.000000  -0.249431   0.000000   0.000000   32.0000     0.0973
    8.000     0.000   0.465413   0.017964   0.011727   0.029690  -0.000000  -0.000000  -0.267955   0.000000   0.000000   32.0000     0.0974
    8.500     0.000   0.493965   0.020239   0.011985   0.032223  -0.000000  -0.000000  -0.286644   0.000000   0.000000   32.0000     0.0975
    9.000     0.000   0.522419   0.022641   0.012269   0.034911  -0.000000  -0.000000  -0.305486   0.000000   0.000000   32.0000     0.0975
    9.500     0.000   0.550771   0.025170   0.012582   0.037752  -0.000000  -0.000000  -0.324469   0.000000   0.000000   32.0000     0.0976
   10.000     0.000   0.579015   0.027823   0.012956   0.040779  -0.000000  -0.000000  -0.343578   0.000000   0.000000   32.0000     0.0977
   10.500     0.000   0.607144   0.030598   0.013375   0.043973  -0.000000  -0.000000  -0.362815   0.000000   0.000000   32.0000     0.0978
   11.000     0.000   0.635155   0.033493   0.013859   0.047352  -0.000000  -0.000000  -0.382165   0.000000   0.000000   32.0000     0.0978
   11.500     0.000   0.663041   0.036505   0.014407   0.050913  -0.000000  -0.000000  -0.401629   0.000000   0.000000   32.0000     0.0979
   12.000     0.000   0.690797   0.039633   0.014993   0.054626  -0.000000  -0.000000  -0.421212   0.000000   0.000000   32.0000     0.0980
   12.500     0.000   0.718418   0.042875   0.015628   0.058503  -0.000000  -0.000000  -0.440903   0.000000   0.000000   32.0000     0.0981
   13.000     0.000   0.745899   0.046227   0.016323   0.062550  -0.000000  -0.000000  -0.460692   0.000000   0.000000   32.0000     0.0982
   13.500     0.000   0.773236   0.049687   0.017043   0.066730  -0.000000  -0.000000  -0.480589   0.000000   0.000000   32.0000     0.0983
   14.000     0.000   0.800422   0.053253   0.017788   0.071041  -0.000000  -0.000000  -0.500582   0.000000   0.000000   32.0000     0.0984
   14.500     0.000   0.827453   0.056922   0.018591   0.075512  -0.000000  -0.000000  -0.520658   0.000000   0.000000   32.0000     0.0986
   15.000     0.000   0.854324   0.060691   0.019469   0.080160  -0.000000  -0.000000  -0.540807   0.000000   0.000000   32.0000     0.0987
   15.500     0.000   0.881031   0.064557   0.020412   0.084968  -0.000000  -0.000000  -0.561029   0.000000   0.000000   32.0000     0.0988
   16.000     0.000   0.907568   0.068517   0.021400   0.089917  -0.000000  -0.000000  -0.581324   0.000000   0.000000   32.0000     0.0989
   16.500     0.000   0.933932   0.072569   0.022383   0.094952  -0.000000  -0.000000  -0.601701   0.000000   0.000000   32.0000     0.0990
   17.000     0.000   0.960117   0.076709   0.023393   0.100102  -0.000000  -0.000000  -0.622138   0.000000   0.000000   32.0000     0.0992
   17.500     0.000   0.986120   0.080934   0.024539   0.105473  -0.000000  -0.000000  -0.642598   0.000000   0.000000   32.0000     0.0993
   18.000     0.000   1.011935   0.085241   0.025823   0.111064  -0.000000  -0.000000  -0.663083   0.000000   0.000000   32.0000     0.0995
   18.500     0.000   1.037560   0.089627   0.027177   0.116804  -0.000000  -0.000000  -0.683620   0.000000   0.000000   32.0000     0.0996
   19.000     0.000   1.062989   0.094088   0.028711   0.122799  -0.000000  -0.000000  -0.704146   0.000000   0.000000   32.0000     0.0998
   19.500     0.000   1.088218   0.098620   0.030498   0.129118  -0.000000  -0.000000  -0.724623   0.000000   0.000000   32.0000     0.0999


