xflr5 v6.47

VTOL_SINGLE_W1_FX63137_2020
T1-25.0 m/s-Panel-0.0kg-x0.0m-Inviscid
QInf  =   25.000000 m/s
Alpha =    0.000000
Beta  =    0.000°
Phi   =    0.000°
Ctrl  =    0.000
CL    =    0.707940
Cy    =    0.000000
Cd    =    0.014030     ICd   =    0.014030     PCd   =    0.000000
Cl   = -1.6701e-15
Cm   =   -0.371068
ICn   =    0.000000     PCn   =    0.000000 
XCP   =    0.107389     YCP   =    0.000000     ZCP   =    0.017662  
XNP   =    0.000000
Bending =   27.729231

Main Wing
  y-span        Chord      Ai         Cl        PCd          ICd        CmGeom    CmAirf@chord/4    XTrtop    XTrBot      XCP       BM
   -1.1306     0.1421    -5.888    0.155060    0.000000    0.015992   -0.139372   -0.087354     0.0000    0.0000    0.6729    0.0000
   -1.1248     0.1427    -4.394    0.257823    0.000000    0.019810   -0.183711   -0.115917     0.0000    0.0000    0.6792    0.0001
   -1.1133     0.1439    -3.280    0.352585    0.000000    0.020206   -0.215893   -0.132707     0.0000    0.0000    0.6498    0.0019
   -1.0961     0.1456    -2.771    0.436216    0.000000    0.021117   -0.256006   -0.153259     0.0000    0.0000    0.6236    0.0094
   -1.0734     0.1480    -2.466    0.506776    0.000000    0.021829   -0.290991   -0.170143     0.0000    0.0000    0.6025    0.0308
   -1.0452     0.1508    -1.999    0.560194    0.000000    0.019555   -0.313792   -0.178961     0.0000    0.0000    0.5821    0.0786
   -1.0116     0.1542    -1.673    0.602206    0.000000    0.017594   -0.330269   -0.184311     0.0000    0.0000    0.5657    0.1701
   -0.9729     0.1582    -1.436    0.635089    0.000000    0.015919   -0.342257   -0.187577     0.0000    0.0000    0.5530    0.3269
   -0.9293     0.1626    -1.260    0.660561    0.000000    0.014529   -0.351030   -0.189608     0.0000    0.0000    0.5433    0.5753
   -0.8809     0.1675    -1.130    0.680031    0.000000    0.013417   -0.357461   -0.190900     0.0000    0.0000    0.5360    0.9452
   -0.8280     0.1729    -1.036    0.694637    0.000000    0.012560   -0.362146   -0.191741     0.0000    0.0000    0.5307    1.4700
   -0.7709     0.1787    -0.969    0.705305    0.000000    0.011934   -0.365494   -0.192289     0.0000    0.0000    0.5268    2.1858
   -0.7098     0.1849    -0.925    0.712778    0.000000    0.011514   -0.367804   -0.192642     0.0000    0.0000    0.5242    3.1305
   -0.6452     0.1915    -0.900    0.717631    0.000000    0.011278   -0.369283   -0.192856     0.0000    0.0000    0.5225    4.3428
   -0.5773     0.1984    -0.891    0.720307    0.000000    0.011208   -0.370085   -0.192965     0.0000    0.0000    0.5215    5.8614
   -0.5064     0.2056    -0.897    0.721136    0.000000    0.011292   -0.370313   -0.192988     0.0000    0.0000    0.5213    7.7237
   -0.4329     0.2130    -0.916    0.720344    0.000000    0.011520   -0.370026   -0.192925     0.0000    0.0000    0.5215    9.9645
   -0.3573     0.2207    -0.950    0.718098    0.000000    0.011902   -0.369262   -0.192774     0.0000    0.0000    0.5223   12.6148
   -0.2798     0.2286    -0.999    0.714482    0.000000    0.012463   -0.368005   -0.192503     0.0000    0.0000    0.5234   15.7007
   -0.2009     0.2366    -1.072    0.709503    0.000000    0.013276   -0.366154   -0.192027     0.0000    0.0000    0.5249   19.2419
   -0.1209     0.2447    -1.186    0.703008    0.000000    0.014548   -0.363386   -0.191095     0.0000    0.0000    0.5266   23.2503
   -0.0404     0.2529    -1.416    0.694223    0.000000    0.017161   -0.358503   -0.188819     0.0000    0.0000    0.5274   27.7292
    0.0404     0.2529    -1.416    0.694223    0.000000    0.017161   -0.358503   -0.188819     0.0000    0.0000    0.5274   27.7292
    0.1209     0.2447    -1.186    0.703008    0.000000    0.014548   -0.363386   -0.191095     0.0000    0.0000    0.5266   23.2503
    0.2009     0.2366    -1.072    0.709503    0.000000    0.013276   -0.366154   -0.192027     0.0000    0.0000    0.5249   19.2419
    0.2798     0.2286    -0.999    0.714482    0.000000    0.012463   -0.368005   -0.192503     0.0000    0.0000    0.5234   15.7007
    0.3573     0.2207    -0.950    0.718098    0.000000    0.011902   -0.369262   -0.192774     0.0000    0.0000    0.5223   12.6148
    0.4329     0.2130    -0.916    0.720344    0.000000    0.011520   -0.370026   -0.192925     0.0000    0.0000    0.5215    9.9645
    0.5064     0.2056    -0.897    0.721136    0.000000    0.011292   -0.370313   -0.192988     0.0000    0.0000    0.5213    7.7237
    0.5773     0.1984    -0.891    0.720307    0.000000    0.011208   -0.370085   -0.192965     0.0000    0.0000    0.5215    5.8614
    0.6452     0.1915    -0.900    0.717631    0.000000    0.011278   -0.369283   -0.192856     0.0000    0.0000    0.5225    4.3428
    0.7098     0.1849    -0.925    0.712778    0.000000    0.011514   -0.367804   -0.192642     0.0000    0.0000    0.5242    3.1305
    0.7709     0.1787    -0.969    0.705305    0.000000    0.011934   -0.365494   -0.192289     0.0000    0.0000    0.5268    2.1858
    0.8280     0.1729    -1.036    0.694637    0.000000    0.012560   -0.362146   -0.191741     0.0000    0.0000    0.5307    1.4700
    0.8809     0.1675    -1.130    0.680031    0.000000    0.013417   -0.357461   -0.190900     0.0000    0.0000    0.5360    0.9452
    0.9293     0.1626    -1.260    0.660561    0.000000    0.014529   -0.351030   -0.189608     0.0000    0.0000    0.5433    0.5753
    0.9729     0.1582    -1.436    0.635089    0.000000    0.015919   -0.342257   -0.187577     0.0000    0.0000    0.5530    0.3269
    1.0116     0.1542    -1.673    0.602206    0.000000    0.017594   -0.330269   -0.184311     0.0000    0.0000    0.5657    0.1701
    1.0452     0.1508    -1.999    0.560194    0.000000    0.019555   -0.313792   -0.178961     0.0000    0.0000    0.5821    0.0786
    1.0734     0.1480    -2.466    0.506776    0.000000    0.021829   -0.290991   -0.170143     0.0000    0.0000    0.6025    0.0308
    1.0961     0.1456    -2.771    0.436216    0.000000    0.021117   -0.256006   -0.153259     0.0000    0.0000    0.6236    0.0094
    1.1133     0.1439    -3.280    0.352585    0.000000    0.020206   -0.215893   -0.132707     0.0000    0.0000    0.6498    0.0019
    1.1248     0.1427    -4.394    0.257823    0.000000    0.019810   -0.183711   -0.115917     0.0000    0.0000    0.6792    0.0001
    1.1306     0.1421    -5.888    0.155060    0.000000    0.015992   -0.139372   -0.087354     0.0000    0.0000    0.6729    0.0000


Main Wing Cp Coefficients
 Panel     CtrlPt.x        CtrlPt.y        CtrlPt.z       Nx      Ny       Nz        Area       Cp
Main WingCp Coefficients
Strip 1
  11       1.407e-01      -1.131e+00       5.066e-04          -0.332           0.034          -0.943       8.810e-06         -0.0927
  12       1.351e-01      -1.131e+00       1.912e-03          -0.209           0.022          -0.978       2.480e-05         -0.1960
  13       1.242e-01      -1.131e+00       3.346e-03          -0.080           0.010          -0.997       3.835e-05         -0.1112
  14       1.091e-01      -1.131e+00       3.680e-03           0.024           0.001          -1.000       4.911e-05         -0.0051
  15       9.088e-02      -1.131e+00       2.576e-03           0.093          -0.004          -0.996       5.624e-05          0.0153
  16       7.105e-02      -1.131e+00       4.424e-04           0.121          -0.006          -0.993       5.880e-05         -0.0245
  17       5.123e-02      -1.131e+00      -1.678e-03           0.091          -0.005          -0.996       5.624e-05         -0.0807
  18       3.301e-02      -1.131e+00      -2.895e-03           0.038          -0.003          -0.999       4.914e-05         -0.1206
  19       1.787e-02      -1.131e+00      -3.093e-03          -0.019          -0.002          -1.000       3.823e-05         -0.1722
  20       7.039e-03      -1.131e+00      -2.437e-03          -0.125          -0.001          -0.992       2.444e-05         -0.3791
  21       1.396e-03      -1.131e+00      -7.678e-04          -0.621           0.000          -0.784       1.060e-05         -0.0787
  22       1.396e-03      -1.131e+00       2.964e-03          -0.874          -0.000           0.486       1.709e-05          0.7095
  23       7.039e-03      -1.131e+00       7.995e-03          -0.502          -0.002           0.865       2.804e-05         -0.1425
  24       1.787e-02      -1.131e+00       1.247e-02          -0.294          -0.005           0.956       3.999e-05         -0.3174
  25       3.301e-02      -1.131e+00       1.571e-02          -0.140          -0.008           0.990       4.959e-05         -0.3547
  26       5.123e-02      -1.131e+00       1.702e-02          -0.012          -0.012           1.000       5.601e-05         -0.3333
  27       7.105e-02      -1.131e+00       1.620e-02           0.092          -0.016           0.996       5.862e-05         -0.2885
  28       9.088e-02      -1.131e+00       1.348e-02           0.180          -0.021           0.983       5.695e-05         -0.2449
  29       1.091e-01      -1.131e+00       9.674e-03           0.231          -0.025           0.973       5.048e-05         -0.2707
  30       1.242e-01      -1.131e+00       5.869e-03           0.259          -0.027           0.965       3.959e-05         -0.4422
  31       1.351e-01      -1.131e+00       2.706e-03           0.312          -0.032           0.949       2.554e-05         -0.5820
  32       1.407e-01      -1.131e+00       6.618e-04           0.417          -0.042           0.908       9.150e-06         -0.6087
Strip 2
  33       1.413e-01      -1.125e+00       5.087e-04          -0.332           0.034          -0.943       2.649e-05          0.0982
  34       1.356e-01      -1.125e+00       1.920e-03          -0.209           0.022          -0.978       7.458e-05          0.0824
  35       1.247e-01      -1.125e+00       3.359e-03          -0.080           0.010          -0.997       1.153e-04          0.1408
  36       1.095e-01      -1.125e+00       3.695e-03           0.024           0.001          -1.000       1.477e-04          0.1374
  37       9.125e-02      -1.125e+00       2.587e-03           0.093          -0.004          -0.996       1.691e-04          0.0831
  38       7.134e-02      -1.125e+00       4.442e-04           0.121          -0.006          -0.993       1.768e-04         -0.0023
  39       5.144e-02      -1.125e+00      -1.685e-03           0.091          -0.005          -0.996       1.691e-04         -0.0902
  40       3.314e-02      -1.125e+00      -2.907e-03           0.038          -0.003          -0.999       1.478e-04         -0.1503
  41       1.794e-02      -1.125e+00      -3.106e-03          -0.019          -0.002          -1.000       1.150e-04         -0.2238
  42       7.068e-03      -1.125e+00      -2.448e-03          -0.125          -0.001          -0.992       7.348e-05         -0.4866
  43       1.402e-03      -1.125e+00      -7.710e-04          -0.621           0.000          -0.784       3.188e-05         -0.2387
  44       1.402e-03      -1.125e+00       2.976e-03          -0.874          -0.000           0.486       5.140e-05          0.8336
  45       7.068e-03      -1.125e+00       8.028e-03          -0.502          -0.002           0.865       8.432e-05         -0.1321
  46       1.794e-02      -1.125e+00       1.253e-02          -0.294          -0.005           0.956       1.203e-04         -0.3853
  47       3.314e-02      -1.125e+00       1.578e-02          -0.140          -0.008           0.990       1.491e-04         -0.4459
  48       5.144e-02      -1.125e+00       1.709e-02          -0.012          -0.012           1.000       1.684e-04         -0.4226
  49       7.134e-02      -1.125e+00       1.626e-02           0.092          -0.016           0.996       1.763e-04         -0.3620
  50       9.125e-02      -1.125e+00       1.353e-02           0.180          -0.021           0.983       1.713e-04         -0.2915
  51       1.095e-01      -1.125e+00       9.714e-03           0.231          -0.025           0.973       1.518e-04         -0.2648
  52       1.247e-01      -1.125e+00       5.893e-03           0.259          -0.027           0.965       1.191e-04         -0.3217
  53       1.356e-01      -1.125e+00       2.717e-03           0.312          -0.032           0.949       7.679e-05         -0.3484
  54       1.413e-01      -1.125e+00       6.646e-04           0.417          -0.042           0.908       2.752e-05         -0.2967
Strip 3
  55       1.424e-01      -1.113e+00       5.128e-04          -0.332           0.034          -0.943       4.437e-05          0.2668
  56       1.367e-01      -1.113e+00       1.935e-03          -0.209           0.022          -0.978       1.249e-04          0.2746
  57       1.258e-01      -1.113e+00       3.387e-03          -0.080           0.010          -0.997       1.931e-04          0.2963
  58       1.104e-01      -1.113e+00       3.726e-03           0.024           0.001          -1.000       2.473e-04          0.2401
  59       9.200e-02      -1.113e+00       2.608e-03           0.093          -0.004          -0.996       2.832e-04          0.1469
  60       7.193e-02      -1.113e+00       4.478e-04           0.121          -0.006          -0.993       2.961e-04          0.0285
  61       5.186e-02      -1.113e+00      -1.699e-03           0.091          -0.005          -0.996       2.832e-04         -0.0902
  62       3.341e-02      -1.113e+00      -2.930e-03           0.038          -0.003          -0.999       2.474e-04         -0.1715
  63       1.809e-02      -1.113e+00      -3.132e-03          -0.019          -0.002          -1.000       1.925e-04         -0.2569
  64       7.126e-03      -1.113e+00      -2.468e-03          -0.125          -0.001          -0.992       1.231e-04         -0.5262
  65       1.413e-03      -1.113e+00      -7.773e-04          -0.621           0.000          -0.784       5.338e-05         -0.2928
  66       1.413e-03      -1.113e+00       3.000e-03          -0.874          -0.000           0.486       8.608e-05          0.9020
  67       7.126e-03      -1.113e+00       8.094e-03          -0.502          -0.002           0.865       1.412e-04         -0.1069
  68       1.809e-02      -1.113e+00       1.263e-02          -0.294          -0.005           0.956       2.014e-04         -0.4457
  69       3.341e-02      -1.113e+00       1.591e-02          -0.140          -0.008           0.990       2.497e-04         -0.5495
  70       5.186e-02      -1.113e+00       1.723e-02          -0.012          -0.012           1.000       2.820e-04         -0.5330
  71       7.193e-02      -1.113e+00       1.640e-02           0.092          -0.016           0.996       2.952e-04         -0.4555
  72       9.200e-02      -1.113e+00       1.365e-02           0.180          -0.021           0.983       2.868e-04         -0.3437
  73       1.104e-01      -1.113e+00       9.793e-03           0.231          -0.025           0.973       2.542e-04         -0.2449
  74       1.258e-01      -1.113e+00       5.941e-03           0.259          -0.027           0.965       1.994e-04         -0.2023
  75       1.367e-01      -1.113e+00       2.739e-03           0.312          -0.032           0.949       1.286e-04         -0.1234
  76       1.424e-01      -1.113e+00       6.700e-04           0.417          -0.042           0.908       4.608e-05         -0.0010
Strip 4
  77       1.442e-01      -1.096e+00       5.190e-04          -0.332           0.034          -0.943       6.255e-05          0.3327
  78       1.384e-01      -1.096e+00       1.959e-03          -0.209           0.022          -0.978       1.761e-04          0.3369
  79       1.273e-01      -1.096e+00       3.428e-03          -0.080           0.010          -0.997       2.722e-04          0.3531
  80       1.118e-01      -1.096e+00       3.771e-03           0.024           0.001          -1.000       3.487e-04          0.2944
  81       9.311e-02      -1.096e+00       2.640e-03           0.093          -0.004          -0.996       3.993e-04          0.1923
  82       7.280e-02      -1.096e+00       4.533e-04           0.121          -0.006          -0.993       4.174e-04          0.0574
  83       5.249e-02      -1.096e+00      -1.719e-03           0.091          -0.005          -0.996       3.992e-04         -0.0800
  84       3.382e-02      -1.096e+00      -2.966e-03           0.038          -0.003          -0.999       3.488e-04         -0.1746
  85       1.831e-02      -1.096e+00      -3.170e-03          -0.019          -0.002          -1.000       2.714e-04         -0.2624
  86       7.212e-03      -1.096e+00      -2.497e-03          -0.125          -0.001          -0.992       1.735e-04         -0.5237
  87       1.430e-03      -1.096e+00      -7.867e-04          -0.621           0.000          -0.784       7.525e-05         -0.2867
  88       1.430e-03      -1.096e+00       3.037e-03          -0.874          -0.000           0.486       1.214e-04          0.9066
  89       7.212e-03      -1.096e+00       8.192e-03          -0.502          -0.002           0.865       1.991e-04         -0.1263
  90       1.831e-02      -1.096e+00       1.278e-02          -0.294          -0.005           0.956       2.839e-04         -0.5041
  91       3.382e-02      -1.096e+00       1.610e-02          -0.140          -0.008           0.990       3.520e-04         -0.6383
  92       5.249e-02      -1.096e+00       1.744e-02          -0.012          -0.012           1.000       3.976e-04         -0.6307
  93       7.280e-02      -1.096e+00       1.660e-02           0.092          -0.016           0.996       4.162e-04         -0.5424
  94       9.311e-02      -1.096e+00       1.381e-02           0.180          -0.021           0.983       4.043e-04         -0.4044
  95       1.118e-01      -1.096e+00       9.912e-03           0.231          -0.025           0.973       3.584e-04         -0.2730
  96       1.273e-01      -1.096e+00       6.013e-03           0.259          -0.027           0.965       2.811e-04         -0.2015
  97       1.384e-01      -1.096e+00       2.773e-03           0.312          -0.032           0.949       1.813e-04         -0.1053
  98       1.442e-01      -1.096e+00       6.781e-04           0.417          -0.042           0.908       6.496e-05          0.0232
Strip 5
  99       1.465e-01      -1.073e+00       5.273e-04          -0.332           0.034          -0.943       8.114e-05          0.3754
 100       1.406e-01      -1.073e+00       1.990e-03          -0.209           0.022          -0.978       2.284e-04          0.3739
 101       1.293e-01      -1.073e+00       3.482e-03          -0.080           0.010          -0.997       3.531e-04          0.3832
 102       1.136e-01      -1.073e+00       3.830e-03           0.024           0.001          -1.000       4.523e-04          0.3237
 103       9.459e-02      -1.073e+00       2.682e-03           0.093          -0.004          -0.996       5.180e-04          0.2209
 104       7.395e-02      -1.073e+00       4.605e-04           0.121          -0.006          -0.993       5.415e-04          0.0813
 105       5.332e-02      -1.073e+00      -1.747e-03           0.091          -0.005          -0.996       5.179e-04         -0.0637
 106       3.435e-02      -1.073e+00      -3.013e-03           0.038          -0.003          -0.999       4.525e-04         -0.1639
 107       1.860e-02      -1.073e+00      -3.220e-03          -0.019          -0.002          -1.000       3.521e-04         -0.2497
 108       7.327e-03      -1.073e+00      -2.537e-03          -0.125          -0.001          -0.992       2.250e-04         -0.4968
 109       1.453e-03      -1.073e+00      -7.992e-04          -0.621           0.000          -0.784       9.762e-05         -0.2418
 110       1.453e-03      -1.073e+00       3.085e-03          -0.874          -0.000           0.486       1.574e-04          0.8940
 111       7.327e-03      -1.073e+00       8.322e-03          -0.502          -0.002           0.865       2.582e-04         -0.1638
 112       1.860e-02      -1.073e+00       1.298e-02          -0.294          -0.005           0.956       3.683e-04         -0.5566
 113       3.435e-02      -1.073e+00       1.635e-02          -0.140          -0.008           0.990       4.567e-04         -0.7072
 114       5.332e-02      -1.073e+00       1.772e-02          -0.012          -0.012           1.000       5.158e-04         -0.7062
 115       7.395e-02      -1.073e+00       1.686e-02           0.092          -0.016           0.996       5.399e-04         -0.6124
 116       9.459e-02      -1.073e+00       1.403e-02           0.180          -0.021           0.983       5.244e-04         -0.4583
 117       1.136e-01      -1.073e+00       1.007e-02           0.231          -0.025           0.973       4.649e-04         -0.3070
 118       1.293e-01      -1.073e+00       6.109e-03           0.259          -0.027           0.965       3.646e-04         -0.2207
 119       1.406e-01      -1.073e+00       2.817e-03           0.312          -0.032           0.949       2.352e-04         -0.1272
 120       1.465e-01      -1.073e+00       6.889e-04           0.417          -0.042           0.908       8.426e-05         -0.0004
Strip 6
 121       1.493e-01      -1.045e+00       5.375e-04          -0.332           0.034          -0.943       1.002e-04          0.3865
 122       1.433e-01      -1.045e+00       2.029e-03          -0.209           0.022          -0.978       2.821e-04          0.3859
 123       1.318e-01      -1.045e+00       3.550e-03          -0.080           0.010          -0.997       4.362e-04          0.3966
 124       1.158e-01      -1.045e+00       3.905e-03           0.024           0.001          -1.000       5.587e-04          0.3391
 125       9.642e-02      -1.045e+00       2.734e-03           0.093          -0.004          -0.996       6.398e-04          0.2385
 126       7.539e-02      -1.045e+00       4.694e-04           0.121          -0.006          -0.993       6.689e-04          0.0997
 127       5.435e-02      -1.045e+00      -1.780e-03           0.091          -0.005          -0.996       6.397e-04         -0.0464
 128       3.502e-02      -1.045e+00      -3.071e-03           0.038          -0.003          -0.999       5.590e-04         -0.1466
 129       1.896e-02      -1.045e+00      -3.282e-03          -0.019          -0.002          -1.000       4.349e-04         -0.2284
 130       7.469e-03      -1.045e+00      -2.586e-03          -0.125          -0.001          -0.992       2.780e-04         -0.4573
 131       1.481e-03      -1.045e+00      -8.147e-04          -0.621           0.000          -0.784       1.206e-04         -0.1784
 132       1.481e-03      -1.045e+00       3.145e-03          -0.874          -0.000           0.486       1.945e-04          0.8734
 133       7.469e-03      -1.045e+00       8.483e-03          -0.502          -0.002           0.865       3.190e-04         -0.2086
 134       1.896e-02      -1.045e+00       1.324e-02          -0.294          -0.005           0.956       4.549e-04         -0.6040
 135       3.502e-02      -1.045e+00       1.667e-02          -0.140          -0.008           0.990       5.641e-04         -0.7605
 136       5.435e-02      -1.045e+00       1.806e-02          -0.012          -0.012           1.000       6.371e-04         -0.7623
 137       7.539e-02      -1.045e+00       1.719e-02           0.092          -0.016           0.996       6.669e-04         -0.6642
 138       9.642e-02      -1.045e+00       1.430e-02           0.180          -0.021           0.983       6.478e-04         -0.4990
 139       1.158e-01      -1.045e+00       1.026e-02           0.231          -0.025           0.973       5.743e-04         -0.3335
 140       1.318e-01      -1.045e+00       6.227e-03           0.259          -0.027           0.965       4.504e-04         -0.2340
 141       1.433e-01      -1.045e+00       2.871e-03           0.312          -0.032           0.949       2.905e-04         -0.1265
 142       1.493e-01      -1.045e+00       7.022e-04           0.417          -0.042           0.908       1.041e-04          0.0102
Strip 7
 143       1.527e-01      -1.012e+00       5.496e-04          -0.332           0.034          -0.943       1.199e-04          0.3917
 144       1.465e-01      -1.012e+00       2.074e-03          -0.209           0.022          -0.978       3.374e-04          0.3920
 145       1.348e-01      -1.012e+00       3.630e-03          -0.080           0.010          -0.997       5.218e-04          0.4037
 146       1.184e-01      -1.012e+00       3.993e-03           0.024           0.001          -1.000       6.683e-04          0.3479
 147       9.860e-02      -1.012e+00       2.795e-03           0.093          -0.004          -0.996       7.653e-04          0.2495
 148       7.709e-02      -1.012e+00       4.800e-04           0.121          -0.006          -0.993       8.000e-04          0.1132
 149       5.558e-02      -1.012e+00      -1.821e-03           0.091          -0.005          -0.996       7.652e-04         -0.0305
 150       3.581e-02      -1.012e+00      -3.141e-03           0.038          -0.003          -0.999       6.686e-04         -0.1284
 151       1.939e-02      -1.012e+00      -3.356e-03          -0.019          -0.002          -1.000       5.202e-04         -0.2050
 152       7.637e-03      -1.012e+00      -2.645e-03          -0.125          -0.001          -0.992       3.325e-04         -0.4148
 153       1.515e-03      -1.012e+00      -8.331e-04          -0.621           0.000          -0.784       1.442e-04         -0.1117
 154       1.515e-03      -1.012e+00       3.216e-03          -0.874          -0.000           0.486       2.326e-04          0.8489
 155       7.637e-03      -1.012e+00       8.675e-03          -0.502          -0.002           0.865       3.815e-04         -0.2539
 156       1.939e-02      -1.012e+00       1.353e-02          -0.294          -0.005           0.956       5.441e-04         -0.6457
 157       3.581e-02      -1.012e+00       1.705e-02          -0.140          -0.008           0.990       6.747e-04         -0.8023
 158       5.558e-02      -1.012e+00       1.847e-02          -0.012          -0.012           1.000       7.621e-04         -0.8033
 159       7.709e-02      -1.012e+00       1.757e-02           0.092          -0.016           0.996       7.977e-04         -0.7012
 160       9.860e-02      -1.012e+00       1.462e-02           0.180          -0.021           0.983       7.749e-04         -0.5275
 161       1.184e-01      -1.012e+00       1.050e-02           0.231          -0.025           0.973       6.869e-04         -0.3521
 162       1.348e-01      -1.012e+00       6.368e-03           0.259          -0.027           0.965       5.387e-04         -0.2438
 163       1.465e-01      -1.012e+00       2.936e-03           0.312          -0.032           0.949       3.475e-04         -0.1278
 164       1.527e-01      -1.012e+00       7.181e-04           0.417          -0.042           0.908       1.245e-04          0.0143
Strip 8
 165       1.566e-01      -9.729e-01       5.636e-04          -0.332           0.034          -0.943       1.401e-04          0.3945
 166       1.503e-01      -9.729e-01       2.127e-03          -0.209           0.022          -0.978       3.945e-04          0.3954
 167       1.382e-01      -9.729e-01       3.722e-03          -0.080           0.010          -0.997       6.100e-04          0.4078
 168       1.214e-01      -9.729e-01       4.095e-03           0.024           0.001          -1.000       7.812e-04          0.3532
 169       1.011e-01      -9.729e-01       2.867e-03           0.093          -0.004          -0.996       8.947e-04          0.2569
 170       7.906e-02      -9.729e-01       4.922e-04           0.121          -0.006          -0.993       9.353e-04          0.1234
 171       5.700e-02      -9.729e-01      -1.867e-03           0.091          -0.005          -0.996       8.945e-04         -0.0174
 172       3.672e-02      -9.729e-01      -3.221e-03           0.038          -0.003          -0.999       7.816e-04         -0.1123
 173       1.988e-02      -9.729e-01      -3.442e-03          -0.019          -0.002          -1.000       6.081e-04         -0.1833
 174       7.832e-03      -9.729e-01      -2.712e-03          -0.125          -0.001          -0.992       3.887e-04         -0.3749
 175       1.553e-03      -9.729e-01      -8.543e-04          -0.621           0.000          -0.784       1.686e-04         -0.0499
 176       1.553e-03      -9.729e-01       3.298e-03          -0.874          -0.000           0.486       2.719e-04          0.8239
 177       7.832e-03      -9.729e-01       8.896e-03          -0.502          -0.002           0.865       4.460e-04         -0.2954
 178       1.988e-02      -9.729e-01       1.388e-02          -0.294          -0.005           0.956       6.361e-04         -0.6810
 179       3.672e-02      -9.729e-01       1.748e-02          -0.140          -0.008           0.990       7.888e-04         -0.8349
 180       5.700e-02      -9.729e-01       1.894e-02          -0.012          -0.012           1.000       8.909e-04         -0.8335
 181       7.906e-02      -9.729e-01       1.802e-02           0.092          -0.016           0.996       9.325e-04         -0.7271
 182       1.011e-01      -9.729e-01       1.500e-02           0.180          -0.021           0.983       9.059e-04         -0.5471
 183       1.214e-01      -9.729e-01       1.076e-02           0.231          -0.025           0.973       8.031e-04         -0.3649
 184       1.382e-01      -9.729e-01       6.530e-03           0.259          -0.027           0.965       6.298e-04         -0.2508
 185       1.503e-01      -9.729e-01       3.011e-03           0.312          -0.032           0.949       4.062e-04         -0.1294
 186       1.566e-01      -9.729e-01       7.364e-04           0.417          -0.042           0.908       1.455e-04          0.0162
Strip 9
 187       1.609e-01      -9.293e-01       5.794e-04          -0.332           0.034          -0.943       1.610e-04          0.3963
 188       1.545e-01      -9.293e-01       2.187e-03          -0.209           0.022          -0.978       4.533e-04          0.3975
 189       1.421e-01      -9.293e-01       3.827e-03          -0.080           0.010          -0.997       7.009e-04          0.4105
 190       1.248e-01      -9.293e-01       4.210e-03           0.024           0.001          -1.000       8.977e-04          0.3568
 191       1.040e-01      -9.293e-01       2.947e-03           0.093          -0.004          -0.996       1.028e-03          0.2621
 192       8.127e-02      -9.293e-01       5.060e-04           0.121          -0.006          -0.993       1.075e-03          0.1309
 193       5.859e-02      -9.293e-01      -1.919e-03           0.091          -0.005          -0.996       1.028e-03         -0.0071
 194       3.775e-02      -9.293e-01      -3.311e-03           0.038          -0.003          -0.999       8.981e-04         -0.0988
 195       2.044e-02      -9.293e-01      -3.539e-03          -0.019          -0.002          -1.000       6.987e-04         -0.1647
 196       8.052e-03      -9.293e-01      -2.788e-03          -0.125          -0.001          -0.992       4.466e-04         -0.3405
 197       1.597e-03      -9.293e-01      -8.783e-04          -0.621           0.000          -0.784       1.937e-04          0.0025
 198       1.597e-03      -9.293e-01       3.390e-03          -0.874          -0.000           0.486       3.124e-04          0.8006
 199       8.052e-03      -9.293e-01       9.145e-03          -0.502          -0.002           0.865       5.125e-04         -0.3310
 200       2.044e-02      -9.293e-01       1.427e-02          -0.294          -0.005           0.956       7.309e-04         -0.7099
 201       3.775e-02      -9.293e-01       1.797e-02          -0.140          -0.008           0.990       9.063e-04         -0.8602
 202       5.859e-02      -9.293e-01       1.947e-02          -0.012          -0.012           1.000       1.024e-03         -0.8556
 203       8.127e-02      -9.293e-01       1.853e-02           0.092          -0.016           0.996       1.071e-03         -0.7454
 204       1.040e-01      -9.293e-01       1.542e-02           0.180          -0.021           0.983       1.041e-03         -0.5608
 205       1.248e-01      -9.293e-01       1.107e-02           0.231          -0.025           0.973       9.227e-04         -0.3738
 206       1.421e-01      -9.293e-01       6.713e-03           0.259          -0.027           0.965       7.236e-04         -0.2558
 207       1.545e-01      -9.293e-01       3.095e-03           0.312          -0.032           0.949       4.667e-04         -0.1308
 208       1.609e-01      -9.293e-01       7.571e-04           0.417          -0.042           0.908       1.672e-04          0.0170
Strip 10
 209       1.658e-01      -8.809e-01       5.970e-04          -0.332           0.034          -0.943       1.825e-04          0.3974
 210       1.592e-01      -8.809e-01       2.253e-03          -0.209           0.022          -0.978       5.138e-04          0.3989
 211       1.464e-01      -8.809e-01       3.943e-03          -0.080           0.010          -0.997       7.944e-04          0.4123
 212       1.286e-01      -8.809e-01       4.337e-03           0.024           0.001          -1.000       1.017e-03          0.3594
 213       1.071e-01      -8.809e-01       3.036e-03           0.093          -0.004          -0.996       1.165e-03          0.2658
 214       8.373e-02      -8.809e-01       5.213e-04           0.121          -0.006          -0.993       1.218e-03          0.1365
 215       6.037e-02      -8.809e-01      -1.978e-03           0.091          -0.005          -0.996       1.165e-03          0.0009
 216       3.890e-02      -8.809e-01      -3.411e-03           0.038          -0.003          -0.999       1.018e-03         -0.0882
 217       2.106e-02      -8.809e-01      -3.646e-03          -0.019          -0.002          -1.000       7.920e-04         -0.1497
 218       8.295e-03      -8.809e-01      -2.872e-03          -0.125          -0.001          -0.992       5.062e-04         -0.3126
 219       1.645e-03      -8.809e-01      -9.048e-04          -0.621           0.000          -0.784       2.196e-04          0.0447
 220       1.645e-03      -8.809e-01       3.493e-03          -0.874          -0.000           0.486       3.541e-04          0.7804
 221       8.295e-03      -8.809e-01       9.422e-03          -0.502          -0.002           0.865       5.809e-04         -0.3601
 222       2.106e-02      -8.809e-01       1.470e-02          -0.294          -0.005           0.956       8.284e-04         -0.7327
 223       3.890e-02      -8.809e-01       1.852e-02          -0.140          -0.008           0.990       1.027e-03         -0.8794
 224       6.037e-02      -8.809e-01       2.006e-02          -0.012          -0.012           1.000       1.160e-03         -0.8718
 225       8.373e-02      -8.809e-01       1.909e-02           0.092          -0.016           0.996       1.214e-03         -0.7585
 226       1.071e-01      -8.809e-01       1.588e-02           0.180          -0.021           0.983       1.180e-03         -0.5703
 227       1.286e-01      -8.809e-01       1.140e-02           0.231          -0.025           0.973       1.046e-03         -0.3799
 228       1.464e-01      -8.809e-01       6.916e-03           0.259          -0.027           0.965       8.202e-04         -0.2594
 229       1.592e-01      -8.809e-01       3.189e-03           0.312          -0.032           0.949       5.290e-04         -0.1319
 230       1.658e-01      -8.809e-01       7.799e-04           0.417          -0.042           0.908       1.896e-04          0.0175
Strip 11
 231       1.711e-01      -8.280e-01       6.161e-04          -0.332           0.034          -0.943       2.046e-04          0.3981
 232       1.643e-01      -8.280e-01       2.325e-03          -0.209           0.022          -0.978       5.758e-04          0.3999
 233       1.511e-01      -8.280e-01       4.069e-03          -0.080           0.010          -0.997       8.904e-04          0.4137
 234       1.327e-01      -8.280e-01       4.476e-03           0.024           0.001          -1.000       1.140e-03          0.3612
 235       1.105e-01      -8.280e-01       3.134e-03           0.093          -0.004          -0.996       1.306e-03          0.2686
 236       8.642e-02      -8.280e-01       5.381e-04           0.121          -0.006          -0.993       1.365e-03          0.1407
 237       6.230e-02      -8.280e-01      -2.041e-03           0.091          -0.005          -0.996       1.306e-03          0.0069
 238       4.014e-02      -8.280e-01      -3.521e-03           0.038          -0.003          -0.999       1.141e-03         -0.0800
 239       2.173e-02      -8.280e-01      -3.762e-03          -0.019          -0.002          -1.000       8.876e-04         -0.1380
 240       8.561e-03      -8.280e-01      -2.965e-03          -0.125          -0.001          -0.992       5.674e-04         -0.2909
 241       1.698e-03      -8.280e-01      -9.338e-04          -0.621           0.000          -0.784       2.461e-04          0.0772
 242       1.698e-03      -8.280e-01       3.605e-03          -0.874          -0.000           0.486       3.969e-04          0.7638
 243       8.561e-03      -8.280e-01       9.724e-03          -0.502          -0.002           0.865       6.511e-04         -0.3830
 244       2.173e-02      -8.280e-01       1.517e-02          -0.294          -0.005           0.956       9.285e-04         -0.7501
 245       4.014e-02      -8.280e-01       1.911e-02          -0.140          -0.008           0.990       1.151e-03         -0.8938
 246       6.230e-02      -8.280e-01       2.071e-02          -0.012          -0.012           1.000       1.300e-03         -0.8836
 247       8.642e-02      -8.280e-01       1.970e-02           0.092          -0.016           0.996       1.361e-03         -0.7678
 248       1.105e-01      -8.280e-01       1.639e-02           0.180          -0.021           0.983       1.322e-03         -0.5769
 249       1.327e-01      -8.280e-01       1.177e-02           0.231          -0.025           0.973       1.172e-03         -0.3842
 250       1.511e-01      -8.280e-01       7.138e-03           0.259          -0.027           0.965       9.193e-04         -0.2618
 251       1.643e-01      -8.280e-01       3.291e-03           0.312          -0.032           0.949       5.929e-04         -0.1327
 252       1.711e-01      -8.280e-01       8.050e-04           0.417          -0.042           0.908       2.125e-04          0.0178
Strip 12
 253       1.769e-01      -7.709e-01       6.368e-04          -0.332           0.034          -0.943       2.271e-04          0.3987
 254       1.698e-01      -7.709e-01       2.403e-03          -0.209           0.022          -0.978       6.392e-04          0.4006
 255       1.562e-01      -7.709e-01       4.206e-03          -0.080           0.010          -0.997       9.885e-04          0.4146
 256       1.371e-01      -7.709e-01       4.626e-03           0.024           0.001          -1.000       1.266e-03          0.3625
 257       1.142e-01      -7.709e-01       3.239e-03           0.093          -0.004          -0.996       1.450e-03          0.2705
 258       8.932e-02      -7.709e-01       5.561e-04           0.121          -0.006          -0.993       1.516e-03          0.1437
 259       6.439e-02      -7.709e-01      -2.109e-03           0.091          -0.005          -0.996       1.450e-03          0.0113
 260       4.149e-02      -7.709e-01      -3.639e-03           0.038          -0.003          -0.999       1.267e-03         -0.0740
 261       2.246e-02      -7.709e-01      -3.889e-03          -0.019          -0.002          -1.000       9.854e-04         -0.1294
 262       8.848e-03      -7.709e-01      -3.064e-03          -0.125          -0.001          -0.992       6.299e-04         -0.2746
 263       1.755e-03      -7.709e-01      -9.652e-04          -0.621           0.000          -0.784       2.732e-04          0.1013
 264       1.755e-03      -7.709e-01       3.726e-03          -0.874          -0.000           0.486       4.406e-04          0.7510
 265       8.848e-03      -7.709e-01       1.005e-02          -0.502          -0.002           0.865       7.227e-04         -0.4001
 266       2.246e-02      -7.709e-01       1.568e-02          -0.294          -0.005           0.956       1.031e-03         -0.7630
 267       4.149e-02      -7.709e-01       1.975e-02          -0.140          -0.008           0.990       1.278e-03         -0.9042
 268       6.439e-02      -7.709e-01       2.140e-02          -0.012          -0.012           1.000       1.444e-03         -0.8921
 269       8.932e-02      -7.709e-01       2.036e-02           0.092          -0.016           0.996       1.511e-03         -0.7743
 270       1.142e-01      -7.709e-01       1.694e-02           0.180          -0.021           0.983       1.468e-03         -0.5816
 271       1.371e-01      -7.709e-01       1.216e-02           0.231          -0.025           0.973       1.301e-03         -0.3871
 272       1.562e-01      -7.709e-01       7.378e-03           0.259          -0.027           0.965       1.021e-03         -0.2634
 273       1.698e-01      -7.709e-01       3.402e-03           0.312          -0.032           0.949       6.582e-04         -0.1331
 274       1.769e-01      -7.709e-01       8.320e-04           0.417          -0.042           0.908       2.359e-04          0.0180
Strip 13
 275       1.830e-01      -7.098e-01       6.589e-04          -0.332           0.034          -0.943       2.500e-04          0.3991
 276       1.757e-01      -7.098e-01       2.487e-03          -0.209           0.022          -0.978       7.037e-04          0.4012
 277       1.616e-01      -7.098e-01       4.351e-03          -0.080           0.010          -0.997       1.088e-03          0.4153
 278       1.419e-01      -7.098e-01       4.787e-03           0.024           0.001          -1.000       1.394e-03          0.3634
 279       1.182e-01      -7.098e-01       3.351e-03           0.093          -0.004          -0.996       1.596e-03          0.2719
 280       9.241e-02      -7.098e-01       5.754e-04           0.121          -0.006          -0.993       1.668e-03          0.1458
 281       6.663e-02      -7.098e-01      -2.183e-03           0.091          -0.005          -0.996       1.596e-03          0.0144
 282       4.293e-02      -7.098e-01      -3.765e-03           0.038          -0.003          -0.999       1.394e-03         -0.0697
 283       2.324e-02      -7.098e-01      -4.024e-03          -0.019          -0.002          -1.000       1.085e-03         -0.1232
 284       9.155e-03      -7.098e-01      -3.170e-03          -0.125          -0.001          -0.992       6.934e-04         -0.2631
 285       1.816e-03      -7.098e-01      -9.987e-04          -0.621           0.000          -0.784       3.008e-04          0.1183
 286       1.816e-03      -7.098e-01       3.855e-03          -0.874          -0.000           0.486       4.850e-04          0.7416
 287       9.155e-03      -7.098e-01       1.040e-02          -0.502          -0.002           0.865       7.956e-04         -0.4123
 288       2.324e-02      -7.098e-01       1.622e-02          -0.294          -0.005           0.956       1.135e-03         -0.7721
 289       4.293e-02      -7.098e-01       2.044e-02          -0.140          -0.008           0.990       1.407e-03         -0.9115
 290       6.663e-02      -7.098e-01       2.214e-02          -0.012          -0.012           1.000       1.589e-03         -0.8979
 291       9.241e-02      -7.098e-01       2.107e-02           0.092          -0.016           0.996       1.663e-03         -0.7787
 292       1.182e-01      -7.098e-01       1.753e-02           0.180          -0.021           0.983       1.616e-03         -0.5847
 293       1.419e-01      -7.098e-01       1.258e-02           0.231          -0.025           0.973       1.432e-03         -0.3891
 294       1.616e-01      -7.098e-01       7.634e-03           0.259          -0.027           0.965       1.123e-03         -0.2645
 295       1.757e-01      -7.098e-01       3.520e-03           0.312          -0.032           0.949       7.246e-04         -0.1334
 296       1.830e-01      -7.098e-01       8.608e-04           0.417          -0.042           0.908       2.596e-04          0.0183
Strip 14
 297       1.895e-01      -6.452e-01       6.823e-04          -0.332           0.034          -0.943       2.731e-04          0.3993
 298       1.819e-01      -6.452e-01       2.575e-03          -0.209           0.022          -0.978       7.687e-04          0.4015
 299       1.673e-01      -6.452e-01       4.506e-03          -0.080           0.010          -0.997       1.189e-03          0.4158
 300       1.469e-01      -6.452e-01       4.957e-03           0.024           0.001          -1.000       1.522e-03          0.3641
 301       1.224e-01      -6.452e-01       3.470e-03           0.093          -0.004          -0.996       1.743e-03          0.2729
 302       9.570e-02      -6.452e-01       5.959e-04           0.121          -0.006          -0.993       1.822e-03          0.1473
 303       6.899e-02      -6.452e-01      -2.260e-03           0.091          -0.005          -0.996       1.743e-03          0.0165
 304       4.445e-02      -6.452e-01      -3.899e-03           0.038          -0.003          -0.999       1.523e-03         -0.0668
 305       2.407e-02      -6.452e-01      -4.167e-03          -0.019          -0.002          -1.000       1.185e-03         -0.1191
 306       9.481e-03      -6.452e-01      -3.283e-03          -0.125          -0.001          -0.992       7.574e-04         -0.2555
 307       1.880e-03      -6.452e-01      -1.034e-03          -0.621           0.000          -0.784       3.286e-04          0.1294
 308       1.880e-03      -6.452e-01       3.992e-03          -0.874          -0.000           0.486       5.298e-04          0.7354
 309       9.481e-03      -6.452e-01       1.077e-02          -0.502          -0.002           0.865       8.691e-04         -0.4202
 310       2.407e-02      -6.452e-01       1.680e-02          -0.294          -0.005           0.956       1.240e-03         -0.7780
 311       4.445e-02      -6.452e-01       2.116e-02          -0.140          -0.008           0.990       1.537e-03         -0.9161
 312       6.899e-02      -6.452e-01       2.293e-02          -0.012          -0.012           1.000       1.736e-03         -0.9016
 313       9.570e-02      -6.452e-01       2.182e-02           0.092          -0.016           0.996       1.817e-03         -0.7815
 314       1.224e-01      -6.452e-01       1.815e-02           0.180          -0.021           0.983       1.765e-03         -0.5866
 315       1.469e-01      -6.452e-01       1.303e-02           0.231          -0.025           0.973       1.565e-03         -0.3903
 316       1.673e-01      -6.452e-01       7.905e-03           0.259          -0.027           0.965       1.227e-03         -0.2651
 317       1.819e-01      -6.452e-01       3.645e-03           0.312          -0.032           0.949       7.915e-04         -0.1335
 318       1.895e-01      -6.452e-01       8.914e-04           0.417          -0.042           0.908       2.836e-04          0.0184
Strip 15
 319       1.963e-01      -5.773e-01       7.069e-04          -0.332           0.034          -0.943       2.962e-04          0.3996
 320       1.885e-01      -5.773e-01       2.668e-03          -0.209           0.022          -0.978       8.338e-04          0.4018
 321       1.734e-01      -5.773e-01       4.668e-03          -0.080           0.010          -0.997       1.289e-03          0.4160
 322       1.522e-01      -5.773e-01       5.135e-03           0.024           0.001          -1.000       1.651e-03          0.3644
 323       1.268e-01      -5.773e-01       3.595e-03           0.093          -0.004          -0.996       1.891e-03          0.2735
 324       9.915e-02      -5.773e-01       6.173e-04           0.121          -0.006          -0.993       1.977e-03          0.1482
 325       7.148e-02      -5.773e-01      -2.342e-03           0.091          -0.005          -0.996       1.891e-03          0.0178
 326       4.606e-02      -5.773e-01      -4.039e-03           0.038          -0.003          -0.999       1.652e-03         -0.0651
 327       2.493e-02      -5.773e-01      -4.317e-03          -0.019          -0.002          -1.000       1.285e-03         -0.1167
 328       9.822e-03      -5.773e-01      -3.401e-03          -0.125          -0.001          -0.992       8.216e-04         -0.2512
 329       1.948e-03      -5.773e-01      -1.071e-03          -0.621           0.000          -0.784       3.564e-04          0.1354
 330       1.948e-03      -5.773e-01       4.136e-03          -0.874          -0.000           0.486       5.747e-04          0.7320
 331       9.822e-03      -5.773e-01       1.116e-02          -0.502          -0.002           0.865       9.428e-04         -0.4244
 332       2.493e-02      -5.773e-01       1.741e-02          -0.294          -0.005           0.956       1.345e-03         -0.7811
 333       4.606e-02      -5.773e-01       2.193e-02          -0.140          -0.008           0.990       1.667e-03         -0.9186
 334       7.148e-02      -5.773e-01       2.376e-02          -0.012          -0.012           1.000       1.883e-03         -0.9035
 335       9.915e-02      -5.773e-01       2.260e-02           0.092          -0.016           0.996       1.971e-03         -0.7830
 336       1.268e-01      -5.773e-01       1.881e-02           0.180          -0.021           0.983       1.915e-03         -0.5875
 337       1.522e-01      -5.773e-01       1.350e-02           0.231          -0.025           0.973       1.697e-03         -0.3908
 338       1.734e-01      -5.773e-01       8.190e-03           0.259          -0.027           0.965       1.331e-03         -0.2654
 339       1.885e-01      -5.773e-01       3.776e-03           0.312          -0.032           0.949       8.586e-04         -0.1335
 340       1.963e-01      -5.773e-01       9.236e-04           0.417          -0.042           0.908       3.076e-04          0.0187
Strip 16
 341       2.035e-01      -5.064e-01       7.325e-04          -0.332           0.034          -0.943       3.192e-04          0.3997
 342       1.953e-01      -5.064e-01       2.765e-03          -0.209           0.022          -0.978       8.985e-04          0.4019
 343       1.797e-01      -5.064e-01       4.838e-03          -0.080           0.010          -0.997       1.389e-03          0.4162
 344       1.578e-01      -5.064e-01       5.322e-03           0.024           0.001          -1.000       1.779e-03          0.3647
 345       1.314e-01      -5.064e-01       3.726e-03           0.093          -0.004          -0.996       2.038e-03          0.2737
 346       1.027e-01      -5.064e-01       6.397e-04           0.121          -0.006          -0.993       2.130e-03          0.1486
 347       7.408e-02      -5.064e-01      -2.427e-03           0.091          -0.005          -0.996       2.037e-03          0.0183
 348       4.773e-02      -5.064e-01      -4.186e-03           0.038          -0.003          -0.999       1.780e-03         -0.0644
 349       2.584e-02      -5.064e-01      -4.473e-03          -0.019          -0.002          -1.000       1.385e-03         -0.1158
 350       1.018e-02      -5.064e-01      -3.525e-03          -0.125          -0.001          -0.992       8.853e-04         -0.2498
 351       2.019e-03      -5.064e-01      -1.110e-03          -0.621           0.000          -0.784       3.840e-04          0.1372
 352       2.019e-03      -5.064e-01       4.286e-03          -0.874          -0.000           0.486       6.193e-04          0.7311
 353       1.018e-02      -5.064e-01       1.156e-02          -0.502          -0.002           0.865       1.016e-03         -0.4255
 354       2.584e-02      -5.064e-01       1.804e-02          -0.294          -0.005           0.956       1.449e-03         -0.7818
 355       4.773e-02      -5.064e-01       2.272e-02          -0.140          -0.008           0.990       1.797e-03         -0.9192
 356       7.408e-02      -5.064e-01       2.462e-02          -0.012          -0.012           1.000       2.029e-03         -0.9040
 357       1.027e-01      -5.064e-01       2.342e-02           0.092          -0.016           0.996       2.124e-03         -0.7833
 358       1.314e-01      -5.064e-01       1.949e-02           0.180          -0.021           0.983       2.063e-03         -0.5877
 359       1.578e-01      -5.064e-01       1.399e-02           0.231          -0.025           0.973       1.829e-03         -0.3909
 360       1.797e-01      -5.064e-01       8.487e-03           0.259          -0.027           0.965       1.434e-03         -0.2653
 361       1.953e-01      -5.064e-01       3.913e-03           0.312          -0.032           0.949       9.252e-04         -0.1333
 362       2.035e-01      -5.064e-01       9.571e-04           0.417          -0.042           0.908       3.315e-04          0.0189
Strip 17
 363       2.109e-01      -4.329e-01       7.591e-04          -0.332           0.034          -0.943       3.417e-04          0.3998
 364       2.024e-01      -4.329e-01       2.865e-03          -0.209           0.022          -0.978       9.620e-04          0.4020
 365       1.862e-01      -4.329e-01       5.014e-03          -0.080           0.010          -0.997       1.487e-03          0.4163
 366       1.635e-01      -4.329e-01       5.515e-03           0.024           0.001          -1.000       1.905e-03          0.3647
 367       1.362e-01      -4.329e-01       3.861e-03           0.093          -0.004          -0.996       2.182e-03          0.2738
 368       1.065e-01      -4.329e-01       6.630e-04           0.121          -0.006          -0.993       2.281e-03          0.1486
 369       7.677e-02      -4.329e-01      -2.515e-03           0.091          -0.005          -0.996       2.181e-03          0.0183
 370       4.946e-02      -4.329e-01      -4.338e-03           0.038          -0.003          -0.999       1.906e-03         -0.0646
 371       2.678e-02      -4.329e-01      -4.636e-03          -0.019          -0.002          -1.000       1.483e-03         -0.1162
 372       1.055e-02      -4.329e-01      -3.653e-03          -0.125          -0.001          -0.992       9.479e-04         -0.2509
 373       2.092e-03      -4.329e-01      -1.151e-03          -0.621           0.000          -0.784       4.112e-04          0.1353
 374       2.092e-03      -4.329e-01       4.441e-03          -0.874          -0.000           0.486       6.631e-04          0.7323
 375       1.055e-02      -4.329e-01       1.198e-02          -0.502          -0.002           0.865       1.088e-03         -0.4238
 376       2.678e-02      -4.329e-01       1.869e-02          -0.294          -0.005           0.956       1.551e-03         -0.7806
 377       4.946e-02      -4.329e-01       2.355e-02          -0.140          -0.008           0.990       1.923e-03         -0.9181
 378       7.677e-02      -4.329e-01       2.551e-02          -0.012          -0.012           1.000       2.173e-03         -0.9031
 379       1.065e-01      -4.329e-01       2.427e-02           0.092          -0.016           0.996       2.274e-03         -0.7826
 380       1.362e-01      -4.329e-01       2.020e-02           0.180          -0.021           0.983       2.209e-03         -0.5871
 381       1.635e-01      -4.329e-01       1.450e-02           0.231          -0.025           0.973       1.958e-03         -0.3904
 382       1.862e-01      -4.329e-01       8.795e-03           0.259          -0.027           0.965       1.536e-03         -0.2649
 383       2.024e-01      -4.329e-01       4.055e-03           0.312          -0.032           0.949       9.905e-04         -0.1330
 384       2.109e-01      -4.329e-01       9.918e-04           0.417          -0.042           0.908       3.549e-04          0.0193
Strip 18
 385       2.185e-01      -3.573e-01       7.865e-04          -0.332           0.034          -0.943       3.636e-04          0.3999
 386       2.097e-01      -3.573e-01       2.969e-03          -0.209           0.022          -0.978       1.024e-03          0.4021
 387       1.929e-01      -3.573e-01       5.195e-03          -0.080           0.010          -0.997       1.583e-03          0.4163
 388       1.694e-01      -3.573e-01       5.714e-03           0.024           0.001          -1.000       2.027e-03          0.3646
 389       1.411e-01      -3.573e-01       4.000e-03           0.093          -0.004          -0.996       2.321e-03          0.2736
 390       1.103e-01      -3.573e-01       6.869e-04           0.121          -0.006          -0.993       2.427e-03          0.1483
 391       7.954e-02      -3.573e-01      -2.605e-03           0.091          -0.005          -0.996       2.321e-03          0.0177
 392       5.125e-02      -3.573e-01      -4.494e-03           0.038          -0.003          -0.999       2.028e-03         -0.0654
 393       2.774e-02      -3.573e-01      -4.803e-03          -0.019          -0.002          -1.000       1.578e-03         -0.1177
 394       1.093e-02      -3.573e-01      -3.785e-03          -0.125          -0.001          -0.992       1.009e-03         -0.2540
 395       2.167e-03      -3.573e-01      -1.192e-03          -0.621           0.000          -0.784       4.375e-04          0.1302
 396       2.167e-03      -3.573e-01       4.602e-03          -0.874          -0.000           0.486       7.055e-04          0.7353
 397       1.093e-02      -3.573e-01       1.241e-02          -0.502          -0.002           0.865       1.157e-03         -0.4197
 398       2.774e-02      -3.573e-01       1.937e-02          -0.294          -0.005           0.956       1.651e-03         -0.7774
 399       5.125e-02      -3.573e-01       2.440e-02          -0.140          -0.008           0.990       2.047e-03         -0.9156
 400       7.954e-02      -3.573e-01       2.643e-02          -0.012          -0.012           1.000       2.312e-03         -0.9010
 401       1.103e-01      -3.573e-01       2.515e-02           0.092          -0.016           0.996       2.420e-03         -0.7808
 402       1.411e-01      -3.573e-01       2.093e-02           0.180          -0.021           0.983       2.350e-03         -0.5858
 403       1.694e-01      -3.573e-01       1.502e-02           0.231          -0.025           0.973       2.084e-03         -0.3894
 404       1.929e-01      -3.573e-01       9.113e-03           0.259          -0.027           0.965       1.634e-03         -0.2642
 405       2.097e-01      -3.573e-01       4.201e-03           0.312          -0.032           0.949       1.054e-03         -0.1325
 406       2.185e-01      -3.573e-01       1.028e-03           0.417          -0.042           0.908       3.777e-04          0.0197
Strip 19
 407       2.263e-01      -2.798e-01       8.146e-04          -0.332           0.034          -0.943       3.846e-04          0.4001
 408       2.172e-01      -2.798e-01       3.074e-03          -0.209           0.022          -0.978       1.083e-03          0.4021
 409       1.998e-01      -2.798e-01       5.380e-03          -0.080           0.010          -0.997       1.674e-03          0.4162
 410       1.754e-01      -2.798e-01       5.918e-03           0.024           0.001          -1.000       2.144e-03          0.3645
 411       1.461e-01      -2.798e-01       4.143e-03           0.093          -0.004          -0.996       2.455e-03          0.2733
 412       1.143e-01      -2.798e-01       7.114e-04           0.121          -0.006          -0.993       2.567e-03          0.1478
 413       8.237e-02      -2.798e-01      -2.698e-03           0.091          -0.005          -0.996       2.455e-03          0.0169
 414       5.307e-02      -2.798e-01      -4.655e-03           0.038          -0.003          -0.999       2.145e-03         -0.0668
 415       2.873e-02      -2.798e-01      -4.974e-03          -0.019          -0.002          -1.000       1.669e-03         -0.1200
 416       1.132e-02      -2.798e-01      -3.920e-03          -0.125          -0.001          -0.992       1.067e-03         -0.2588
 417       2.245e-03      -2.798e-01      -1.235e-03          -0.621           0.000          -0.784       4.627e-04          0.1224
 418       2.245e-03      -2.798e-01       4.766e-03          -0.874          -0.000           0.486       7.462e-04          0.7400
 419       1.132e-02      -2.798e-01       1.286e-02          -0.502          -0.002           0.865       1.224e-03         -0.4133
 420       2.873e-02      -2.798e-01       2.006e-02          -0.294          -0.005           0.956       1.746e-03         -0.7724
 421       5.307e-02      -2.798e-01       2.527e-02          -0.140          -0.008           0.990       2.165e-03         -0.9114
 422       8.237e-02      -2.798e-01       2.738e-02          -0.012          -0.012           1.000       2.445e-03         -0.8975
 423       1.143e-01      -2.798e-01       2.605e-02           0.092          -0.016           0.996       2.559e-03         -0.7779
 424       1.461e-01      -2.798e-01       2.167e-02           0.180          -0.021           0.983       2.486e-03         -0.5835
 425       1.754e-01      -2.798e-01       1.556e-02           0.231          -0.025           0.973       2.204e-03         -0.3877
 426       1.998e-01      -2.798e-01       9.438e-03           0.259          -0.027           0.965       1.728e-03         -0.2630
 427       2.172e-01      -2.798e-01       4.351e-03           0.312          -0.032           0.949       1.115e-03         -0.1317
 428       2.263e-01      -2.798e-01       1.064e-03           0.417          -0.042           0.908       3.994e-04          0.0203
Strip 20
 429       2.342e-01      -2.009e-01       8.431e-04          -0.332           0.034          -0.943       4.043e-04          0.4001
 430       2.248e-01      -2.009e-01       3.182e-03          -0.209           0.022          -0.978       1.138e-03          0.4022
 431       2.068e-01      -2.009e-01       5.568e-03          -0.080           0.010          -0.997       1.760e-03          0.4162
 432       1.816e-01      -2.009e-01       6.125e-03           0.024           0.001          -1.000       2.254e-03          0.3643
 433       1.513e-01      -2.009e-01       4.288e-03           0.093          -0.004          -0.996       2.581e-03          0.2730
 434       1.183e-01      -2.009e-01       7.363e-04           0.121          -0.006          -0.993       2.698e-03          0.1471
 435       8.526e-02      -2.009e-01      -2.793e-03           0.091          -0.005          -0.996       2.581e-03          0.0158
 436       5.494e-02      -2.009e-01      -4.818e-03           0.038          -0.003          -0.999       2.255e-03         -0.0685
 437       2.974e-02      -2.009e-01      -5.149e-03          -0.019          -0.002          -1.000       1.754e-03         -0.1228
 438       1.172e-02      -2.009e-01      -4.057e-03          -0.125          -0.001          -0.992       1.121e-03         -0.2650
 439       2.323e-03      -2.009e-01      -1.278e-03          -0.621           0.000          -0.784       4.865e-04          0.1124
 440       2.323e-03      -2.009e-01       4.933e-03          -0.874          -0.000           0.486       7.844e-04          0.7458
 441       1.172e-02      -2.009e-01       1.331e-02          -0.502          -0.002           0.865       1.287e-03         -0.4050
 442       2.974e-02      -2.009e-01       2.076e-02          -0.294          -0.005           0.956       1.835e-03         -0.7658
 443       5.494e-02      -2.009e-01       2.615e-02          -0.140          -0.008           0.990       2.276e-03         -0.9056
 444       8.526e-02      -2.009e-01       2.834e-02          -0.012          -0.012           1.000       2.570e-03         -0.8924
 445       1.183e-01      -2.009e-01       2.696e-02           0.092          -0.016           0.996       2.690e-03         -0.7735
 446       1.513e-01      -2.009e-01       2.243e-02           0.180          -0.021           0.983       2.613e-03         -0.5799
 447       1.816e-01      -2.009e-01       1.610e-02           0.231          -0.025           0.973       2.317e-03         -0.3850
 448       2.068e-01      -2.009e-01       9.769e-03           0.259          -0.027           0.965       1.817e-03         -0.2610
 449       2.248e-01      -2.009e-01       4.504e-03           0.312          -0.032           0.949       1.172e-03         -0.1304
 450       2.342e-01      -2.009e-01       1.102e-03           0.417          -0.042           0.908       4.199e-04          0.0210
Strip 21
 451       2.422e-01      -1.209e-01       8.721e-04          -0.332           0.034          -0.943       4.225e-04          0.4002
 452       2.325e-01      -1.209e-01       3.291e-03          -0.209           0.022          -0.978       1.189e-03          0.4022
 453       2.139e-01      -1.209e-01       5.760e-03          -0.080           0.010          -0.997       1.839e-03          0.4161
 454       1.878e-01      -1.209e-01       6.336e-03           0.024           0.001          -1.000       2.355e-03          0.3642
 455       1.565e-01      -1.209e-01       4.436e-03           0.093          -0.004          -0.996       2.697e-03          0.2728
 456       1.223e-01      -1.209e-01       7.616e-04           0.121          -0.006          -0.993       2.820e-03          0.1467
 457       8.819e-02      -1.209e-01      -2.889e-03           0.091          -0.005          -0.996       2.697e-03          0.0150
 458       5.682e-02      -1.209e-01      -4.983e-03           0.038          -0.003          -0.999       2.356e-03         -0.0701
 459       3.076e-02      -1.209e-01      -5.326e-03          -0.019          -0.002          -1.000       1.833e-03         -0.1257
 460       1.212e-02      -1.209e-01      -4.196e-03          -0.125          -0.001          -0.992       1.172e-03         -0.2715
 461       2.403e-03      -1.209e-01      -1.322e-03          -0.621           0.000          -0.784       5.083e-04          0.1015
 462       2.403e-03      -1.209e-01       5.102e-03          -0.874          -0.000           0.486       8.197e-04          0.7522
 463       1.212e-02      -1.209e-01       1.376e-02          -0.502          -0.002           0.865       1.345e-03         -0.3957
 464       3.076e-02      -1.209e-01       2.147e-02          -0.294          -0.005           0.956       1.918e-03         -0.7578
 465       5.682e-02      -1.209e-01       2.705e-02          -0.140          -0.008           0.990       2.378e-03         -0.8980
 466       8.819e-02      -1.209e-01       2.931e-02          -0.012          -0.012           1.000       2.686e-03         -0.8848
 467       1.223e-01      -1.209e-01       2.789e-02           0.092          -0.016           0.996       2.811e-03         -0.7663
 468       1.565e-01      -1.209e-01       2.320e-02           0.180          -0.021           0.983       2.731e-03         -0.5737
 469       1.878e-01      -1.209e-01       1.665e-02           0.231          -0.025           0.973       2.421e-03         -0.3802
 470       2.139e-01      -1.209e-01       1.010e-02           0.259          -0.027           0.965       1.899e-03         -0.2576
 471       2.325e-01      -1.209e-01       4.658e-03           0.312          -0.032           0.949       1.225e-03         -0.1284
 472       2.422e-01      -1.209e-01       1.139e-03           0.417          -0.042           0.908       4.388e-04          0.0222
Strip 22
 473       2.503e-01      -4.038e-02       9.012e-04          -0.332           0.034          -0.943       4.389e-04          0.3992
 474       2.403e-01      -4.038e-02       3.402e-03          -0.209           0.022          -0.978       1.235e-03          0.4015
 475       2.210e-01      -4.038e-02       5.952e-03          -0.080           0.010          -0.997       1.910e-03          0.4155
 476       1.941e-01      -4.038e-02       6.547e-03           0.024           0.001          -1.000       2.447e-03          0.3646
 477       1.617e-01      -4.038e-02       4.584e-03           0.093          -0.004          -0.996       2.802e-03          0.2739
 478       1.264e-01      -4.038e-02       7.871e-04           0.121          -0.006          -0.993       2.929e-03          0.1479
 479       9.114e-02      -4.038e-02      -2.985e-03           0.091          -0.005          -0.996       2.801e-03          0.0155
 480       5.872e-02      -4.038e-02      -5.150e-03           0.038          -0.003          -0.999       2.448e-03         -0.0707
 481       3.179e-02      -4.038e-02      -5.504e-03          -0.019          -0.002          -1.000       1.904e-03         -0.1278
 482       1.252e-02      -4.038e-02      -4.337e-03          -0.125          -0.001          -0.992       1.217e-03         -0.2769
 483       2.483e-03      -4.038e-02      -1.366e-03          -0.621           0.000          -0.784       5.280e-04          0.0925
 484       2.483e-03      -4.038e-02       5.273e-03          -0.874          -0.000           0.486       8.515e-04          0.7573
 485       1.252e-02      -4.038e-02       1.422e-02          -0.502          -0.002           0.865       1.397e-03         -0.3878
 486       3.179e-02      -4.038e-02       2.219e-02          -0.294          -0.005           0.956       1.992e-03         -0.7499
 487       5.872e-02      -4.038e-02       2.795e-02          -0.140          -0.008           0.990       2.470e-03         -0.8885
 488       9.114e-02      -4.038e-02       3.029e-02          -0.012          -0.012           1.000       2.790e-03         -0.8730
 489       1.264e-01      -4.038e-02       2.882e-02           0.092          -0.016           0.996       2.920e-03         -0.7526
 490       1.617e-01      -4.038e-02       2.398e-02           0.180          -0.021           0.983       2.837e-03         -0.5600
 491       1.941e-01      -4.038e-02       1.721e-02           0.231          -0.025           0.973       2.515e-03         -0.3687
 492       2.210e-01      -4.038e-02       1.044e-02           0.259          -0.027           0.965       1.972e-03         -0.2493
 493       2.403e-01      -4.038e-02       4.814e-03           0.312          -0.032           0.949       1.272e-03         -0.1240
 494       2.503e-01      -4.038e-02       1.178e-03           0.417          -0.042           0.908       4.558e-04          0.0243
Strip 23
 495       2.503e-01       4.038e-02       9.012e-04          -0.332          -0.034          -0.943       4.389e-04          0.3992
 496       2.403e-01       4.038e-02       3.402e-03          -0.209          -0.022          -0.978       1.235e-03          0.4015
 497       2.210e-01       4.038e-02       5.952e-03          -0.080          -0.010          -0.997       1.910e-03          0.4155
 498       1.941e-01       4.038e-02       6.547e-03           0.024          -0.001          -1.000       2.447e-03          0.3646
 499       1.617e-01       4.038e-02       4.584e-03           0.093           0.004          -0.996       2.802e-03          0.2739
 500       1.264e-01       4.038e-02       7.871e-04           0.121           0.006          -0.993       2.929e-03          0.1479
 501       9.114e-02       4.038e-02      -2.985e-03           0.091           0.005          -0.996       2.801e-03          0.0155
 502       5.872e-02       4.038e-02      -5.150e-03           0.038           0.003          -0.999       2.448e-03         -0.0707
 503       3.179e-02       4.038e-02      -5.504e-03          -0.019           0.002          -1.000       1.904e-03         -0.1278
 504       1.252e-02       4.038e-02      -4.337e-03          -0.125           0.001          -0.992       1.217e-03         -0.2769
 505       2.483e-03       4.038e-02      -1.366e-03          -0.621          -0.000          -0.784       5.280e-04          0.0925
 506       2.483e-03       4.038e-02       5.273e-03          -0.874           0.000           0.486       8.515e-04          0.7573
 507       1.252e-02       4.038e-02       1.422e-02          -0.502           0.002           0.865       1.397e-03         -0.3878
 508       3.179e-02       4.038e-02       2.219e-02          -0.294           0.005           0.956       1.992e-03         -0.7499
 509       5.872e-02       4.038e-02       2.795e-02          -0.140           0.008           0.990       2.470e-03         -0.8885
 510       9.114e-02       4.038e-02       3.029e-02          -0.012           0.012           1.000       2.790e-03         -0.8730
 511       1.264e-01       4.038e-02       2.882e-02           0.092           0.016           0.996       2.920e-03         -0.7526
 512       1.617e-01       4.038e-02       2.398e-02           0.180           0.021           0.983       2.837e-03         -0.5600
 513       1.941e-01       4.038e-02       1.721e-02           0.231           0.025           0.973       2.515e-03         -0.3687
 514       2.210e-01       4.038e-02       1.044e-02           0.259           0.027           0.965       1.972e-03         -0.2493
 515       2.403e-01       4.038e-02       4.814e-03           0.312           0.032           0.949       1.272e-03         -0.1240
 516       2.503e-01       4.038e-02       1.178e-03           0.417           0.042           0.908       4.558e-04          0.0243
Strip 24
 517       2.422e-01       1.209e-01       8.721e-04          -0.332          -0.034          -0.943       4.225e-04          0.4002
 518       2.325e-01       1.209e-01       3.291e-03          -0.209          -0.022          -0.978       1.189e-03          0.4022
 519       2.139e-01       1.209e-01       5.760e-03          -0.080          -0.010          -0.997       1.839e-03          0.4161
 520       1.878e-01       1.209e-01       6.336e-03           0.024          -0.001          -1.000       2.355e-03          0.3642
 521       1.565e-01       1.209e-01       4.436e-03           0.093           0.004          -0.996       2.697e-03          0.2728
 522       1.223e-01       1.209e-01       7.616e-04           0.121           0.006          -0.993       2.820e-03          0.1467
 523       8.819e-02       1.209e-01      -2.889e-03           0.091           0.005          -0.996       2.697e-03          0.0150
 524       5.682e-02       1.209e-01      -4.983e-03           0.038           0.003          -0.999       2.356e-03         -0.0701
 525       3.076e-02       1.209e-01      -5.326e-03          -0.019           0.002          -1.000       1.833e-03         -0.1257
 526       1.212e-02       1.209e-01      -4.196e-03          -0.125           0.001          -0.992       1.172e-03         -0.2715
 527       2.403e-03       1.209e-01      -1.322e-03          -0.621          -0.000          -0.784       5.083e-04          0.1015
 528       2.403e-03       1.209e-01       5.102e-03          -0.874           0.000           0.486       8.197e-04          0.7522
 529       1.212e-02       1.209e-01       1.376e-02          -0.502           0.002           0.865       1.345e-03         -0.3957
 530       3.076e-02       1.209e-01       2.147e-02          -0.294           0.005           0.956       1.918e-03         -0.7578
 531       5.682e-02       1.209e-01       2.705e-02          -0.140           0.008           0.990       2.378e-03         -0.8980
 532       8.819e-02       1.209e-01       2.931e-02          -0.012           0.012           1.000       2.686e-03         -0.8848
 533       1.223e-01       1.209e-01       2.789e-02           0.092           0.016           0.996       2.811e-03         -0.7663
 534       1.565e-01       1.209e-01       2.320e-02           0.180           0.021           0.983       2.731e-03         -0.5737
 535       1.878e-01       1.209e-01       1.665e-02           0.231           0.025           0.973       2.421e-03         -0.3802
 536       2.139e-01       1.209e-01       1.010e-02           0.259           0.027           0.965       1.899e-03         -0.2576
 537       2.325e-01       1.209e-01       4.658e-03           0.312           0.032           0.949       1.225e-03         -0.1284
 538       2.422e-01       1.209e-01       1.139e-03           0.417           0.042           0.908       4.388e-04          0.0222
Strip 25
 539       2.342e-01       2.009e-01       8.431e-04          -0.332          -0.034          -0.943       4.043e-04          0.4001
 540       2.248e-01       2.009e-01       3.182e-03          -0.209          -0.022          -0.978       1.138e-03          0.4022
 541       2.068e-01       2.009e-01       5.568e-03          -0.080          -0.010          -0.997       1.760e-03          0.4162
 542       1.816e-01       2.009e-01       6.125e-03           0.024          -0.001          -1.000       2.254e-03          0.3643
 543       1.513e-01       2.009e-01       4.288e-03           0.093           0.004          -0.996       2.581e-03          0.2730
 544       1.183e-01       2.009e-01       7.363e-04           0.121           0.006          -0.993       2.698e-03          0.1471
 545       8.526e-02       2.009e-01      -2.793e-03           0.091           0.005          -0.996       2.581e-03          0.0158
 546       5.494e-02       2.009e-01      -4.818e-03           0.038           0.003          -0.999       2.255e-03         -0.0685
 547       2.974e-02       2.009e-01      -5.149e-03          -0.019           0.002          -1.000       1.754e-03         -0.1228
 548       1.172e-02       2.009e-01      -4.057e-03          -0.125           0.001          -0.992       1.121e-03         -0.2650
 549       2.323e-03       2.009e-01      -1.278e-03          -0.621          -0.000          -0.784       4.865e-04          0.1124
 550       2.323e-03       2.009e-01       4.933e-03          -0.874           0.000           0.486       7.844e-04          0.7458
 551       1.172e-02       2.009e-01       1.331e-02          -0.502           0.002           0.865       1.287e-03         -0.4050
 552       2.974e-02       2.009e-01       2.076e-02          -0.294           0.005           0.956       1.835e-03         -0.7658
 553       5.494e-02       2.009e-01       2.615e-02          -0.140           0.008           0.990       2.276e-03         -0.9056
 554       8.526e-02       2.009e-01       2.834e-02          -0.012           0.012           1.000       2.570e-03         -0.8924
 555       1.183e-01       2.009e-01       2.696e-02           0.092           0.016           0.996       2.690e-03         -0.7735
 556       1.513e-01       2.009e-01       2.243e-02           0.180           0.021           0.983       2.613e-03         -0.5799
 557       1.816e-01       2.009e-01       1.610e-02           0.231           0.025           0.973       2.317e-03         -0.3850
 558       2.068e-01       2.009e-01       9.769e-03           0.259           0.027           0.965       1.817e-03         -0.2610
 559       2.248e-01       2.009e-01       4.504e-03           0.312           0.032           0.949       1.172e-03         -0.1304
 560       2.342e-01       2.009e-01       1.102e-03           0.417           0.042           0.908       4.199e-04          0.0210
[...]
 830       7.709e-02       1.012e+00       4.800e-04           0.121           0.006          -0.993       8.000e-04          0.1132
 831       5.558e-02       1.012e+00      -1.821e-03           0.091           0.005          -0.996       7.652e-04         -0.0305
 832       3.581e-02       1.012e+00      -3.141e-03           0.038           0.003          -0.999       6.686e-04         -0.1284
 833       1.939e-02       1.012e+00      -3.356e-03          -0.019           0.002          -1.000       5.202e-04         -0.2050
 834       7.637e-03       1.012e+00      -2.645e-03          -0.125           0.001          -0.992       3.325e-04         -0.4148
 835       1.515e-03       1.012e+00      -8.331e-04          -0.621          -0.000          -0.784       1.442e-04         -0.1117
 836       1.515e-03       1.012e+00       3.216e-03          -0.874           0.000           0.486       2.326e-04          0.8489
 837       7.637e-03       1.012e+00       8.675e-03          -0.502           0.002           0.865       3.815e-04         -0.2539
 838       1.939e-02       1.012e+00       1.353e-02          -0.294           0.005           0.956       5.441e-04         -0.6457
 839       3.581e-02       1.012e+00       1.705e-02          -0.140           0.008           0.990       6.747e-04         -0.8023
 840       5.558e-02       1.012e+00       1.847e-02          -0.012           0.012           1.000       7.621e-04         -0.8033
 841       7.709e-02       1.012e+00       1.757e-02           0.092           0.016           0.996       7.977e-04         -0.7012
 842       9.860e-02       1.012e+00       1.462e-02           0.180           0.021           0.983       7.749e-04         -0.5275
 843       1.184e-01       1.012e+00       1.050e-02           0.231           0.025           0.973       6.869e-04         -0.3521
 844       1.348e-01       1.012e+00       6.368e-03           0.259           0.027           0.965       5.387e-04         -0.2438
 845       1.465e-01       1.012e+00       2.936e-03           0.312           0.032           0.949       3.475e-04         -0.1278
 846       1.527e-01       1.012e+00       7.181e-04           0.417           0.042           0.908       1.245e-04          0.0143
Strip 39
 847       1.493e-01       1.045e+00       5.375e-04          -0.332          -0.034          -0.943       1.002e-04          0.3865
 848       1.433e-01       1.045e+00       2.029e-03          -0.209          -0.022          -0.978       2.821e-04          0.3859
 849       1.318e-01       1.045e+00       3.550e-03          -0.080          -0.010          -0.997       4.362e-04          0.3966
 850       1.158e-01       1.045e+00       3.905e-03           0.024          -0.001          -1.000       5.587e-04          0.3391
 851       9.642e-02       1.045e+00       2.734e-03           0.093           0.004          -0.996       6.398e-04          0.2385
 852       7.539e-02       1.045e+00       4.694e-04           0.121           0.006          -0.993       6.689e-04          0.0997
 853       5.435e-02       1.045e+00      -1.780e-03           0.091           0.005          -0.996       6.397e-04         -0.0464
 854       3.502e-02       1.045e+00      -3.071e-03           0.038           0.003          -0.999       5.590e-04         -0.1466
 855       1.896e-02       1.045e+00      -3.282e-03          -0.019           0.002          -1.000       4.349e-04         -0.2284
 856       7.469e-03       1.045e+00      -2.586e-03          -0.125           0.001          -0.992       2.780e-04         -0.4573
 857       1.481e-03       1.045e+00      -8.147e-04          -0.621          -0.000          -0.784       1.206e-04         -0.1784
 858       1.481e-03       1.045e+00       3.145e-03          -0.874           0.000           0.486       1.945e-04          0.8734
 859       7.469e-03       1.045e+00       8.483e-03          -0.502           0.002           0.865       3.190e-04         -0.2086
 860       1.896e-02       1.045e+00       1.324e-02          -0.294           0.005           0.956       4.549e-04         -0.6040
 861       3.502e-02       1.045e+00       1.667e-02          -0.140           0.008           0.990       5.641e-04         -0.7605
 862       5.435e-02       1.045e+00       1.806e-02          -0.012           0.012           1.000       6.371e-04         -0.7623
 863       7.539e-02       1.045e+00       1.719e-02           0.092           0.016           0.996       6.669e-04         -0.6642
 864       9.642e-02       1.045e+00       1.430e-02           0.180           0.021           0.983       6.478e-04         -0.4990
 865       1.158e-01       1.045e+00       1.026e-02           0.231           0.025           0.973       5.743e-04         -0.3335
 866       1.318e-01       1.045e+00       6.227e-03           0.259           0.027           0.965       4.504e-04         -0.2340
 867       1.433e-01       1.045e+00       2.871e-03           0.312           0.032           0.949       2.905e-04         -0.1265
 868       1.493e-01       1.045e+00       7.022e-04           0.417           0.042           0.908       1.041e-04          0.0102
Strip 40
 869       1.465e-01       1.073e+00       5.273e-04          -0.332          -0.034          -0.943       8.114e-05          0.3754
 870       1.406e-01       1.073e+00       1.990e-03          -0.209          -0.022          -0.978       2.284e-04          0.3739
 871       1.293e-01       1.073e+00       3.482e-03          -0.080          -0.010          -0.997       3.531e-04          0.3832
 872       1.136e-01       1.073e+00       3.830e-03           0.024          -0.001          -1.000       4.523e-04          0.3237
 873       9.459e-02       1.073e+00       2.682e-03           0.093           0.004          -0.996       5.180e-04          0.2209
 874       7.395e-02       1.073e+00       4.605e-04           0.121           0.006          -0.993       5.415e-04          0.0813
 875       5.332e-02       1.073e+00      -1.747e-03           0.091           0.005          -0.996       5.179e-04         -0.0637
 876       3.435e-02       1.073e+00      -3.013e-03           0.038           0.003          -0.999       4.525e-04         -0.1639
 877       1.860e-02       1.073e+00      -3.220e-03          -0.019           0.002          -1.000       3.521e-04         -0.2497
 878       7.327e-03       1.073e+00      -2.537e-03          -0.125           0.001          -0.992       2.250e-04         -0.4968
 879       1.453e-03       1.073e+00      -7.992e-04          -0.621          -0.000          -0.784       9.762e-05         -0.2418
 880       1.453e-03       1.073e+00       3.085e-03          -0.874           0.000           0.486       1.574e-04          0.8940
 881       7.327e-03       1.073e+00       8.322e-03          -0.502           0.002           0.865       2.582e-04         -0.1638
 882       1.860e-02       1.073e+00       1.298e-02          -0.294           0.005           0.956       3.683e-04         -0.5566
 883       3.435e-02       1.073e+00       1.635e-02          -0.140           0.008           0.990       4.567e-04         -0.7072
 884       5.332e-02       1.073e+00       1.772e-02          -0.012           0.012           1.000       5.158e-04         -0.7062
 885       7.395e-02       1.073e+00       1.686e-02           0.092           0.016           0.996       5.399e-04         -0.6124
 886       9.459e-02       1.073e+00       1.403e-02           0.180           0.021           0.983       5.244e-04         -0.4583
 887       1.136e-01       1.073e+00       1.007e-02           0.231           0.025           0.973       4.649e-04         -0.3070
 888       1.293e-01       1.073e+00       6.109e-03           0.259           0.027           0.965       3.646e-04         -0.2207
 889       1.406e-01       1.073e+00       2.817e-03           0.312           0.032           0.949       2.352e-04         -0.1272
 890       1.465e-01       1.073e+00       6.889e-04           0.417           0.042           0.908       8.426e-05         -0.0004
Strip 41
 891       1.442e-01       1.096e+00       5.190e-04          -0.332          -0.034          -0.943       6.255e-05          0.3327
 892       1.384e-01       1.096e+00       1.959e-03          -0.209          -0.022          -0.978       1.761e-04          0.3369
 893       1.273e-01       1.096e+00       3.428e-03          -0.080          -0.010          -0.997       2.722e-04          0.3531
 894       1.118e-01       1.096e+00       3.771e-03           0.024          -0.001          -1.000       3.487e-04          0.2944
 895       9.311e-02       1.096e+00       2.640e-03           0.093           0.004          -0.996       3.993e-04          0.1923
 896       7.280e-02       1.096e+00       4.533e-04           0.121           0.006          -0.993       4.174e-04          0.0574
 897       5.249e-02       1.096e+00      -1.719e-03           0.091           0.005          -0.996       3.992e-04         -0.0800
 898       3.382e-02       1.096e+00      -2.966e-03           0.038           0.003          -0.999       3.488e-04         -0.1746
 899       1.831e-02       1.096e+00      -3.170e-03          -0.019           0.002          -1.000       2.714e-04         -0.2624
 900       7.212e-03       1.096e+00      -2.497e-03          -0.125           0.001          -0.992       1.735e-04         -0.5237
 901       1.430e-03       1.096e+00      -7.867e-04          -0.621          -0.000          -0.784       7.525e-05         -0.2867
 902       1.430e-03       1.096e+00       3.037e-03          -0.874           0.000           0.486       1.214e-04          0.9066
 903       7.212e-03       1.096e+00       8.192e-03          -0.502           0.002           0.865       1.991e-04         -0.1263
 904       1.831e-02       1.096e+00       1.278e-02          -0.294           0.005           0.956       2.839e-04         -0.5041
 905       3.382e-02       1.096e+00       1.610e-02          -0.140           0.008           0.990       3.520e-04         -0.6383
 906       5.249e-02       1.096e+00       1.744e-02          -0.012           0.012           1.000       3.976e-04         -0.6307
 907       7.280e-02       1.096e+00       1.660e-02           0.092           0.016           0.996       4.162e-04         -0.5424
 908       9.311e-02       1.096e+00       1.381e-02           0.180           0.021           0.983       4.043e-04         -0.4044
 909       1.118e-01       1.096e+00       9.912e-03           0.231           0.025           0.973       3.584e-04         -0.2730
 910       1.273e-01       1.096e+00       6.013e-03           0.259           0.027           0.965       2.811e-04         -0.2015
 911       1.384e-01       1.096e+00       2.773e-03           0.312           0.032           0.949       1.813e-04         -0.1053
 912       1.442e-01       1.096e+00       6.781e-04           0.417           0.042           0.908       6.496e-05          0.0232
Strip 42
 913       1.424e-01       1.113e+00       5.128e-04          -0.332          -0.034          -0.943       4.437e-05          0.2668
 914       1.367e-01       1.113e+00       1.935e-03          -0.209          -0.022          -0.978       1.249e-04          0.2746
 915       1.258e-01       1.113e+00       3.387e-03          -0.080          -0.010          -0.997       1.931e-04          0.2963
 916       1.104e-01       1.113e+00       3.726e-03           0.024          -0.001          -1.000       2.473e-04          0.2401
 917       9.200e-02       1.113e+00       2.608e-03           0.093           0.004          -0.996       2.832e-04          0.1469
 918       7.193e-02       1.113e+00       4.478e-04           0.121           0.006          -0.993       2.961e-04          0.0285
 919       5.186e-02       1.113e+00      -1.699e-03           0.091           0.005          -0.996       2.832e-04         -0.0902
 920       3.341e-02       1.113e+00      -2.930e-03           0.038           0.003          -0.999       2.474e-04         -0.1715
 921       1.809e-02       1.113e+00      -3.132e-03          -0.019           0.002          -1.000       1.925e-04         -0.2569
 922       7.126e-03       1.113e+00      -2.468e-03          -0.125           0.001          -0.992       1.231e-04         -0.5262
 923       1.413e-03       1.113e+00      -7.773e-04          -0.621          -0.000          -0.784       5.338e-05         -0.2928
 924       1.413e-03       1.113e+00       3.000e-03          -0.874           0.000           0.486       8.608e-05          0.9020
 925       7.126e-03       1.113e+00       8.094e-03          -0.502           0.002           0.865       1.412e-04         -0.1069
 926       1.809e-02       1.113e+00       1.263e-02          -0.294           0.005           0.956       2.014e-04         -0.4457
 927       3.341e-02       1.113e+00       1.591e-02          -0.140           0.008           0.990       2.497e-04         -0.5495
 928       5.186e-02       1.113e+00       1.723e-02          -0.012           0.012           1.000       2.820e-04         -0.5330
 929       7.193e-02       1.113e+00       1.640e-02           0.092           0.016           0.996       2.952e-04         -0.4555
 930       9.200e-02       1.113e+00       1.365e-02           0.180           0.021           0.983       2.868e-04         -0.3437
 931       1.104e-01       1.113e+00       9.793e-03           0.231           0.025           0.973       2.542e-04         -0.2449
 932       1.258e-01       1.113e+00       5.941e-03           0.259           0.027           0.965       1.994e-04         -0.2023
 933       1.367e-01       1.113e+00       2.739e-03           0.312           0.032           0.949       1.286e-04         -0.1234
 934       1.424e-01       1.113e+00       6.700e-04           0.417           0.042           0.908       4.608e-05         -0.0010
Strip 43
 935       1.413e-01       1.125e+00       5.087e-04          -0.332          -0.034          -0.943       2.649e-05          0.0982
 936       1.356e-01       1.125e+00       1.920e-03          -0.209          -0.022          -0.978       7.458e-05          0.0824
 937       1.247e-01       1.125e+00       3.359e-03          -0.080          -0.010          -0.997       1.153e-04          0.1408
 938       1.095e-01       1.125e+00       3.695e-03           0.024          -0.001          -1.000       1.477e-04          0.1374
 939       9.125e-02       1.125e+00       2.587e-03           0.093           0.004          -0.996       1.691e-04          0.0831
 940       7.134e-02       1.125e+00       4.442e-04           0.121           0.006          -0.993       1.768e-04         -0.0023
 941       5.144e-02       1.125e+00      -1.685e-03           0.091           0.005          -0.996       1.691e-04         -0.0902
 942       3.314e-02       1.125e+00      -2.907e-03           0.038           0.003          -0.999       1.478e-04         -0.1503
 943       1.794e-02       1.125e+00      -3.106e-03          -0.019           0.002          -1.000       1.150e-04         -0.2238
 944       7.068e-03       1.125e+00      -2.448e-03          -0.125           0.001          -0.992       7.348e-05         -0.4866
 945       1.402e-03       1.125e+00      -7.710e-04          -0.621          -0.000          -0.784       3.188e-05         -0.2387
 946       1.402e-03       1.125e+00       2.976e-03          -0.874           0.000           0.486       5.140e-05          0.8336
 947       7.068e-03       1.125e+00       8.028e-03          -0.502           0.002           0.865       8.432e-05         -0.1321
 948       1.794e-02       1.125e+00       1.253e-02          -0.294           0.005           0.956       1.203e-04         -0.3853
 949       3.314e-02       1.125e+00       1.578e-02          -0.140           0.008           0.990       1.491e-04         -0.4459
 950       5.144e-02       1.125e+00       1.709e-02          -0.012           0.012           1.000       1.684e-04         -0.4226
 951       7.134e-02       1.125e+00       1.626e-02           0.092           0.016           0.996       1.763e-04         -0.3620
 952       9.125e-02       1.125e+00       1.353e-02           0.180           0.021           0.983       1.713e-04         -0.2915
 953       1.095e-01       1.125e+00       9.714e-03           0.231           0.025           0.973       1.518e-04         -0.2648
 954       1.247e-01       1.125e+00       5.893e-03           0.259           0.027           0.965       1.191e-04         -0.3217
 955       1.356e-01       1.125e+00       2.717e-03           0.312           0.032           0.949       7.679e-05         -0.3484
 956       1.413e-01       1.125e+00       6.646e-04           0.417           0.042           0.908       2.752e-05         -0.2967
Strip 44
 957       1.407e-01       1.131e+00       5.066e-04          -0.332          -0.034          -0.943       8.810e-06         -0.0927
 958       1.351e-01       1.131e+00       1.912e-03          -0.209          -0.022          -0.978       2.480e-05         -0.1960
 959       1.242e-01       1.131e+00       3.346e-03          -0.080          -0.010          -0.997       3.835e-05         -0.1112
 960       1.091e-01       1.131e+00       3.680e-03           0.024          -0.001          -1.000       4.911e-05         -0.0051
 961       9.088e-02       1.131e+00       2.576e-03           0.093           0.004          -0.996       5.624e-05          0.0153
 962       7.105e-02       1.131e+00       4.424e-04           0.121           0.006          -0.993       5.880e-05         -0.0245
 963       5.123e-02       1.131e+00      -1.678e-03           0.091           0.005          -0.996       5.624e-05         -0.0807
 964       3.301e-02       1.131e+00      -2.895e-03           0.038           0.003          -0.999       4.914e-05         -0.1206
 965       1.787e-02       1.131e+00      -3.093e-03          -0.019           0.002          -1.000       3.823e-05         -0.1722
 966       7.039e-03       1.131e+00      -2.437e-03          -0.125           0.001          -0.992       2.444e-05         -0.3791
 967       1.396e-03       1.131e+00      -7.678e-04          -0.621          -0.000          -0.784       1.060e-05         -0.0787
 968       1.396e-03       1.131e+00       2.964e-03          -0.874           0.000           0.486       1.709e-05          0.7095
 969       7.039e-03       1.131e+00       7.995e-03          -0.502           0.002           0.865       2.804e-05         -0.1425
 970       1.787e-02       1.131e+00       1.247e-02          -0.294           0.005           0.956       3.999e-05         -0.3174
 971       3.301e-02       1.131e+00       1.571e-02          -0.140           0.008           0.990       4.959e-05         -0.3547
 972       5.123e-02       1.131e+00       1.702e-02          -0.012           0.012           1.000       5.601e-05         -0.3333
 973       7.105e-02       1.131e+00       1.620e-02           0.092           0.016           0.996       5.862e-05         -0.2885
 974       9.088e-02       1.131e+00       1.348e-02           0.180           0.021           0.983       5.695e-05         -0.2449
 975       1.091e-01       1.131e+00       9.674e-03           0.231           0.025           0.973       5.048e-05         -0.2707
 976       1.242e-01       1.131e+00       5.869e-03           0.259           0.027           0.965       3.959e-05         -0.4422
 977       1.351e-01       1.131e+00       2.706e-03           0.312           0.032           0.949       2.554e-05         -0.5820
 978       1.407e-01       1.131e+00       6.618e-04           0.417           0.042           0.908       9.150e-06         -0.6087










