xflr5 v6.47

VTOL_SINGLE_W1_FX63137_2020
T1-25.0 m/s-Panel-0.0kg-x0.0m-Inviscid
QInf  =   25.000000 m/s
Alpha =   20.000000
Beta  =    0.000°
Phi   =    0.000°
Ctrl  =    0.000
CL    =    2.390595
Cy    =    0.000000
Cd    =    0.156097     ICd   =    0.156097     PCd   =    0.000000
Cl   = 2.87936e-15
Cm   =   -0.764391
ICn   =    0.000000     PCn   =    0.000000 
XCP   =    0.059476     YCP   =   -0.000000     ZCP   =    0.013224  
XNP   =    0.000000
Bending =   89.889536

Main Wing Cp Coefficients
 Panel     CtrlPt.x        CtrlPt.y        CtrlPt.z       Nx      Ny       Nz        Area       Cp
Main WingCp Coefficients
Strip 1
  11       1.407e-01      -1.131e+00       5.066e-04          -0.332           0.034          -0.943       8.810e-06         -4.2087
  12       1.351e-01      -1.131e+00       1.912e-03          -0.209           0.022          -0.978       2.480e-05         -4.9480
  13       1.242e-01      -1.131e+00       3.346e-03          -0.080           0.010          -0.997       3.835e-05         -4.1794
  14       1.091e-01      -1.131e+00       3.680e-03           0.024           0.001          -1.000       4.911e-05         -2.3927
  15       9.088e-02      -1.131e+00       2.576e-03           0.093          -0.004          -0.996       5.624e-05         -1.1596
  16       7.105e-02      -1.131e+00       4.424e-04           0.121          -0.006          -0.993       5.880e-05         -0.5996
  17       5.123e-02      -1.131e+00      -1.678e-03           0.091          -0.005          -0.996       5.624e-05         -0.3235
  18       3.301e-02      -1.131e+00      -2.895e-03           0.038          -0.003          -0.999       4.914e-05         -0.1213
  19       1.787e-02      -1.131e+00      -3.093e-03          -0.019          -0.002          -1.000       3.823e-05          0.0875
  20       7.039e-03      -1.131e+00      -2.437e-03          -0.125          -0.001          -0.992       2.444e-05          0.4118
  21       1.396e-03      -1.131e+00      -7.678e-04          -0.621           0.000          -0.784       1.060e-05          0.7707
  22       1.396e-03      -1.131e+00       2.964e-03          -0.874          -0.000           0.486       1.709e-05         -1.6614
  23       7.039e-03      -1.131e+00       7.995e-03          -0.502          -0.002           0.865       2.804e-05         -1.6189
  24       1.787e-02      -1.131e+00       1.247e-02          -0.294          -0.005           0.956       3.999e-05         -1.1265
  25       3.301e-02      -1.131e+00       1.571e-02          -0.140          -0.008           0.990       4.959e-05         -0.9043
  26       5.123e-02      -1.131e+00       1.702e-02          -0.012          -0.012           1.000       5.601e-05         -0.8174
  27       7.105e-02      -1.131e+00       1.620e-02           0.092          -0.016           0.996       5.862e-05         -0.8959
  28       9.088e-02      -1.131e+00       1.348e-02           0.180          -0.021           0.983       5.695e-05         -1.3281
  29       1.091e-01      -1.131e+00       9.674e-03           0.231          -0.025           0.973       5.048e-05         -2.5310
  30       1.242e-01      -1.131e+00       5.869e-03           0.259          -0.027           0.965       3.959e-05         -4.4607
  31       1.351e-01      -1.131e+00       2.706e-03           0.312          -0.032           0.949       2.554e-05         -5.8232
  32       1.407e-01      -1.131e+00       6.618e-04           0.417          -0.042           0.908       9.150e-06         -6.5824
Strip 2
  33       1.413e-01      -1.125e+00       5.087e-04          -0.332           0.034          -0.943       2.649e-05         -2.0648
  34       1.356e-01      -1.125e+00       1.920e-03          -0.209           0.022          -0.978       7.458e-05         -2.2838
  35       1.247e-01      -1.125e+00       3.359e-03          -0.080           0.010          -0.997       1.153e-04         -1.9030
  36       1.095e-01      -1.125e+00       3.695e-03           0.024           0.001          -1.000       1.477e-04         -1.1823
  37       9.125e-02      -1.125e+00       2.587e-03           0.093          -0.004          -0.996       1.691e-04         -0.6485
  38       7.134e-02      -1.125e+00       4.442e-04           0.121          -0.006          -0.993       1.768e-04         -0.3663
  39       5.144e-02      -1.125e+00      -1.685e-03           0.091          -0.005          -0.996       1.691e-04         -0.1810
  40       3.314e-02      -1.125e+00      -2.907e-03           0.038          -0.003          -0.999       1.478e-04          0.0053
  41       1.794e-02      -1.125e+00      -3.106e-03          -0.019          -0.002          -1.000       1.150e-04          0.2359
  42       7.068e-03      -1.125e+00      -2.448e-03          -0.125          -0.001          -0.992       7.348e-05          0.6070
  43       1.402e-03      -1.125e+00      -7.710e-04          -0.621           0.000          -0.784       3.188e-05          0.7685
  44       1.402e-03      -1.125e+00       2.976e-03          -0.874          -0.000           0.486       5.140e-05         -2.3271
  45       7.068e-03      -1.125e+00       8.028e-03          -0.502          -0.002           0.865       8.432e-05         -2.0242
  46       1.794e-02      -1.125e+00       1.253e-02          -0.294          -0.005           0.956       1.203e-04         -1.3677
  47       3.314e-02      -1.125e+00       1.578e-02          -0.140          -0.008           0.990       1.491e-04         -1.0398
  48       5.144e-02      -1.125e+00       1.709e-02          -0.012          -0.012           1.000       1.684e-04         -0.8551
  49       7.134e-02      -1.125e+00       1.626e-02           0.092          -0.016           0.996       1.763e-04         -0.8157
  50       9.125e-02      -1.125e+00       1.353e-02           0.180          -0.021           0.983       1.713e-04         -1.0109
  51       1.095e-01      -1.125e+00       9.714e-03           0.231          -0.025           0.973       1.518e-04         -1.5890
  52       1.247e-01      -1.125e+00       5.893e-03           0.259          -0.027           0.965       1.191e-04         -2.4251
  53       1.356e-01      -1.125e+00       2.717e-03           0.312          -0.032           0.949       7.679e-05         -2.9752
  54       1.413e-01      -1.125e+00       6.646e-04           0.417          -0.042           0.908       2.752e-05         -3.1985
Strip 3
  55       1.424e-01      -1.113e+00       5.128e-04          -0.332           0.034          -0.943       4.437e-05         -0.2810
  56       1.367e-01      -1.113e+00       1.935e-03          -0.209           0.022          -0.978       1.249e-04         -0.2670
  57       1.258e-01      -1.113e+00       3.387e-03          -0.080           0.010          -0.997       1.931e-04         -0.1995
  58       1.104e-01      -1.113e+00       3.726e-03           0.024           0.001          -1.000       2.473e-04         -0.1644
  59       9.200e-02      -1.113e+00       2.608e-03           0.093          -0.004          -0.996       2.832e-04         -0.1147
  60       7.193e-02      -1.113e+00       4.478e-04           0.121          -0.006          -0.993       2.961e-04         -0.0551
  61       5.186e-02      -1.113e+00      -1.699e-03           0.091          -0.005          -0.996       2.832e-04          0.0397
  62       3.341e-02      -1.113e+00      -2.930e-03           0.038          -0.003          -0.999       2.474e-04          0.2056
  63       1.809e-02      -1.113e+00      -3.132e-03          -0.019          -0.002          -1.000       1.925e-04          0.4590
  64       7.126e-03      -1.113e+00      -2.468e-03          -0.125          -0.001          -0.992       1.231e-04          0.8369
  65       1.413e-03      -1.113e+00      -7.773e-04          -0.621           0.000          -0.784       5.338e-05          0.5996
  66       1.413e-03      -1.113e+00       3.000e-03          -0.874          -0.000           0.486       8.608e-05         -3.2832
  67       7.126e-03      -1.113e+00       8.094e-03          -0.502          -0.002           0.865       1.412e-04         -2.5670
  68       1.809e-02      -1.113e+00       1.263e-02          -0.294          -0.005           0.956       2.014e-04         -1.7013
  69       3.341e-02      -1.113e+00       1.591e-02          -0.140          -0.008           0.990       2.497e-04         -1.2440
  70       5.186e-02      -1.113e+00       1.723e-02          -0.012          -0.012           1.000       2.820e-04         -0.9362
  71       7.193e-02      -1.113e+00       1.640e-02           0.092          -0.016           0.996       2.952e-04         -0.7399
  72       9.200e-02      -1.113e+00       1.365e-02           0.180          -0.021           0.983       2.868e-04         -0.6423
  73       1.104e-01      -1.113e+00       9.793e-03           0.231          -0.025           0.973       2.542e-04         -0.6438
  74       1.258e-01      -1.113e+00       5.941e-03           0.259          -0.027           0.965       1.994e-04         -0.6927
  75       1.367e-01      -1.113e+00       2.739e-03           0.312          -0.032           0.949       1.286e-04         -0.6601
  76       1.424e-01      -1.113e+00       6.700e-04           0.417          -0.042           0.908       4.608e-05         -0.5365
Strip 4
  77       1.442e-01      -1.096e+00       5.190e-04          -0.332           0.034          -0.943       6.255e-05          0.1606
  78       1.384e-01      -1.096e+00       1.959e-03          -0.209           0.022          -0.978       1.761e-04          0.1769
  79       1.273e-01      -1.096e+00       3.428e-03          -0.080           0.010          -0.997       2.722e-04          0.2340
  80       1.118e-01      -1.096e+00       3.771e-03           0.024           0.001          -1.000       3.487e-04          0.2221
  81       9.311e-02      -1.096e+00       2.640e-03           0.093          -0.004          -0.996       3.993e-04          0.1923
  82       7.280e-02      -1.096e+00       4.533e-04           0.121          -0.006          -0.993       4.174e-04          0.1783
  83       5.249e-02      -1.096e+00      -1.719e-03           0.091          -0.005          -0.996       3.992e-04          0.2283
  84       3.382e-02      -1.096e+00      -2.966e-03           0.038          -0.003          -0.999       3.488e-04          0.3765
  85       1.831e-02      -1.096e+00      -3.170e-03          -0.019          -0.002          -1.000       2.714e-04          0.6237
  86       7.212e-03      -1.096e+00      -2.497e-03          -0.125          -0.001          -0.992       1.735e-04          0.9464
  87       1.430e-03      -1.096e+00      -7.867e-04          -0.621           0.000          -0.784       7.525e-05          0.2617
  88       1.430e-03      -1.096e+00       3.037e-03          -0.874          -0.000           0.486       1.214e-04         -4.3410
  89       7.212e-03      -1.096e+00       8.192e-03          -0.502          -0.002           0.865       1.991e-04         -3.1275
  90       1.831e-02      -1.096e+00       1.278e-02          -0.294          -0.005           0.956       2.839e-04         -2.0575
  91       3.382e-02      -1.096e+00       1.610e-02          -0.140          -0.008           0.990       3.520e-04         -1.4910
  92       5.249e-02      -1.096e+00       1.744e-02          -0.012          -0.012           1.000       3.976e-04         -1.0850
  93       7.280e-02      -1.096e+00       1.660e-02           0.092          -0.016           0.996       4.162e-04         -0.7775
  94       9.311e-02      -1.096e+00       1.381e-02           0.180          -0.021           0.983       4.043e-04         -0.5362
  95       1.118e-01      -1.096e+00       9.912e-03           0.231          -0.025           0.973       3.584e-04         -0.3815
  96       1.273e-01      -1.096e+00       6.013e-03           0.259          -0.027           0.965       2.811e-04         -0.3092
  97       1.384e-01      -1.096e+00       2.773e-03           0.312          -0.032           0.949       1.813e-04         -0.2001
  98       1.442e-01      -1.096e+00       6.781e-04           0.417          -0.042           0.908       6.496e-05         -0.0527
Strip 5
  99       1.465e-01      -1.073e+00       5.273e-04          -0.332           0.034          -0.943       8.114e-05          0.3714
 100       1.406e-01      -1.073e+00       1.990e-03          -0.209           0.022          -0.978       2.284e-04          0.3687
 101       1.293e-01      -1.073e+00       3.482e-03          -0.080           0.010          -0.997       3.531e-04          0.4045
 102       1.136e-01      -1.073e+00       3.830e-03           0.024           0.001          -1.000       4.523e-04          0.3855
 103       9.459e-02      -1.073e+00       2.682e-03           0.093          -0.004          -0.996       5.180e-04          0.3492
 104       7.395e-02      -1.073e+00       4.605e-04           0.121          -0.006          -0.993       5.415e-04          0.3253
 105       5.332e-02      -1.073e+00      -1.747e-03           0.091          -0.005          -0.996       5.179e-04          0.3646
 106       3.435e-02      -1.073e+00      -3.013e-03           0.038          -0.003          -0.999       4.525e-04          0.5025
 107       1.860e-02      -1.073e+00      -3.220e-03          -0.019          -0.002          -1.000       3.521e-04          0.7352
 108       7.327e-03      -1.073e+00      -2.537e-03          -0.125          -0.001          -0.992       2.250e-04          0.9871
 109       1.453e-03      -1.073e+00      -7.992e-04          -0.621           0.000          -0.784       9.762e-05         -0.1606
 110       1.453e-03      -1.073e+00       3.085e-03          -0.874          -0.000           0.486       1.574e-04         -5.4251
 111       7.327e-03      -1.073e+00       8.322e-03          -0.502          -0.002           0.865       2.582e-04         -3.6677
 112       1.860e-02      -1.073e+00       1.298e-02          -0.294          -0.005           0.956       3.683e-04         -2.3948
 113       3.435e-02      -1.073e+00       1.635e-02          -0.140          -0.008           0.990       4.567e-04         -1.7382
 114       5.332e-02      -1.073e+00       1.772e-02          -0.012          -0.012           1.000       5.158e-04         -1.2587
 115       7.395e-02      -1.073e+00       1.686e-02           0.092          -0.016           0.996       5.399e-04         -0.8789
 116       9.459e-02      -1.073e+00       1.403e-02           0.180          -0.021           0.983       5.244e-04         -0.5609
 117       1.136e-01      -1.073e+00       1.007e-02           0.231          -0.025           0.973       4.649e-04         -0.3355
 118       1.293e-01      -1.073e+00       6.109e-03           0.259          -0.027           0.965       3.646e-04         -0.2148
 119       1.406e-01      -1.073e+00       2.817e-03           0.312          -0.032           0.949       2.352e-04         -0.0994
 120       1.465e-01      -1.073e+00       6.889e-04           0.417          -0.042           0.908       8.426e-05          0.0571
Strip 6
 121       1.493e-01      -1.045e+00       5.375e-04          -0.332           0.034          -0.943       1.002e-04          0.4487
 122       1.433e-01      -1.045e+00       2.029e-03          -0.209           0.022          -0.978       2.821e-04          0.4452
 123       1.318e-01      -1.045e+00       3.550e-03          -0.080           0.010          -0.997       4.362e-04          0.4808
 124       1.158e-01      -1.045e+00       3.905e-03           0.024           0.001          -1.000       5.587e-04          0.4661
 125       9.642e-02      -1.045e+00       2.734e-03           0.093          -0.004          -0.996       6.398e-04          0.4366
 126       7.539e-02      -1.045e+00       4.694e-04           0.121          -0.006          -0.993       6.689e-04          0.4188
 127       5.435e-02      -1.045e+00      -1.780e-03           0.091          -0.005          -0.996       6.397e-04          0.4596
 128       3.502e-02      -1.045e+00      -3.071e-03           0.038          -0.003          -0.999       5.590e-04          0.5932
 129       1.896e-02      -1.045e+00      -3.282e-03          -0.019          -0.002          -1.000       4.349e-04          0.8119
 130       7.469e-03      -1.045e+00      -2.586e-03          -0.125          -0.001          -0.992       2.780e-04          0.9873
 131       1.481e-03      -1.045e+00      -8.147e-04          -0.621           0.000          -0.784       1.206e-04         -0.6224
 132       1.481e-03      -1.045e+00       3.145e-03          -0.874          -0.000           0.486       1.945e-04         -6.4803
 133       7.469e-03      -1.045e+00       8.483e-03          -0.502          -0.002           0.865       3.190e-04         -4.1702
 134       1.896e-02      -1.045e+00       1.324e-02          -0.294          -0.005           0.956       4.549e-04         -2.6977
 135       3.502e-02      -1.045e+00       1.667e-02          -0.140          -0.008           0.990       5.641e-04         -1.9604
 136       5.435e-02      -1.045e+00       1.806e-02          -0.012          -0.012           1.000       6.371e-04         -1.4244
 137       7.539e-02      -1.045e+00       1.719e-02           0.092          -0.016           0.996       6.669e-04         -0.9915
 138       9.642e-02      -1.045e+00       1.430e-02           0.180          -0.021           0.983       6.478e-04         -0.6202
 139       1.158e-01      -1.045e+00       1.026e-02           0.231          -0.025           0.973       5.743e-04         -0.3462
 140       1.318e-01      -1.045e+00       6.227e-03           0.259          -0.027           0.965       4.504e-04         -0.1865
 141       1.433e-01      -1.045e+00       2.871e-03           0.312          -0.032           0.949       2.905e-04         -0.0331
 142       1.493e-01      -1.045e+00       7.022e-04           0.417          -0.042           0.908       1.041e-04          0.1519
Strip 7
 143       1.527e-01      -1.012e+00       5.496e-04          -0.332           0.034          -0.943       1.199e-04          0.4852
 144       1.465e-01      -1.012e+00       2.074e-03          -0.209           0.022          -0.978       3.374e-04          0.4835
 145       1.348e-01      -1.012e+00       3.630e-03          -0.080           0.010          -0.997       5.218e-04          0.5211
 146       1.184e-01      -1.012e+00       3.993e-03           0.024           0.001          -1.000       6.683e-04          0.5111
 147       9.860e-02      -1.012e+00       2.795e-03           0.093          -0.004          -0.996       7.653e-04          0.4891
 148       7.709e-02      -1.012e+00       4.800e-04           0.121          -0.006          -0.993       8.000e-04          0.4795
 149       5.558e-02      -1.012e+00      -1.821e-03           0.091          -0.005          -0.996       7.652e-04          0.5261
 150       3.581e-02      -1.012e+00      -3.141e-03           0.038          -0.003          -0.999       6.686e-04          0.6584
 151       1.939e-02      -1.012e+00      -3.356e-03          -0.019          -0.002          -1.000       5.202e-04          0.8646
 152       7.637e-03      -1.012e+00      -2.645e-03          -0.125          -0.001          -0.992       3.325e-04          0.9636
 153       1.515e-03      -1.012e+00      -8.331e-04          -0.621           0.000          -0.784       1.442e-04         -1.0829
 154       1.515e-03      -1.012e+00       3.216e-03          -0.874          -0.000           0.486       2.326e-04         -7.4575
 155       7.637e-03      -1.012e+00       8.675e-03          -0.502          -0.002           0.865       3.815e-04         -4.6207
 156       1.939e-02      -1.012e+00       1.353e-02          -0.294          -0.005           0.956       5.441e-04         -2.9606
 157       3.581e-02      -1.012e+00       1.705e-02          -0.140          -0.008           0.990       6.747e-04         -2.1500
 158       5.558e-02      -1.012e+00       1.847e-02          -0.012          -0.012           1.000       7.621e-04         -1.5663
 159       7.709e-02      -1.012e+00       1.757e-02           0.092          -0.016           0.996       7.977e-04         -1.0922
 160       9.860e-02      -1.012e+00       1.462e-02           0.180          -0.021           0.983       7.749e-04         -0.6801
 161       1.184e-01      -1.012e+00       1.050e-02           0.231          -0.025           0.973       6.869e-04         -0.3702
 162       1.348e-01      -1.012e+00       6.368e-03           0.259          -0.027           0.965       5.387e-04         -0.1834
 163       1.465e-01      -1.012e+00       2.936e-03           0.312          -0.032           0.949       3.475e-04         -0.0063
 164       1.527e-01      -1.012e+00       7.181e-04           0.417          -0.042           0.908       1.245e-04          0.1931
Strip 8
 165       1.566e-01      -9.729e-01       5.636e-04          -0.332           0.034          -0.943       1.401e-04          0.5054
 166       1.503e-01      -9.729e-01       2.127e-03          -0.209           0.022          -0.978       3.945e-04          0.5054
 167       1.382e-01      -9.729e-01       3.722e-03          -0.080           0.010          -0.997       6.100e-04          0.5448
 168       1.214e-01      -9.729e-01       4.095e-03           0.024           0.001          -1.000       7.812e-04          0.5385
 169       1.011e-01      -9.729e-01       2.867e-03           0.093          -0.004          -0.996       8.947e-04          0.5226
 170       7.906e-02      -9.729e-01       4.922e-04           0.121          -0.006          -0.993       9.353e-04          0.5207
 171       5.700e-02      -9.729e-01      -1.867e-03           0.091          -0.005          -0.996       8.945e-04          0.5727
 172       3.672e-02      -9.729e-01      -3.221e-03           0.038          -0.003          -0.999       7.816e-04          0.7047
 173       1.988e-02      -9.729e-01      -3.442e-03          -0.019          -0.002          -1.000       6.081e-04          0.9004
 174       7.832e-03      -9.729e-01      -2.712e-03          -0.125          -0.001          -0.992       3.887e-04          0.9280
 175       1.553e-03      -9.729e-01      -8.543e-04          -0.621           0.000          -0.784       1.686e-04         -1.5120
 176       1.553e-03      -9.729e-01       3.298e-03          -0.874          -0.000           0.486       2.719e-04         -8.3202
 177       7.832e-03      -9.729e-01       8.896e-03          -0.502          -0.002           0.865       4.460e-04         -5.0080
 178       1.988e-02      -9.729e-01       1.388e-02          -0.294          -0.005           0.956       6.361e-04         -3.1814
 179       3.672e-02      -9.729e-01       1.748e-02          -0.140          -0.008           0.990       7.888e-04         -2.3060
 180       5.700e-02      -9.729e-01       1.894e-02          -0.012          -0.012           1.000       8.909e-04         -1.6819
 181       7.906e-02      -9.729e-01       1.802e-02           0.092          -0.016           0.996       9.325e-04         -1.1742
 182       1.011e-01      -9.729e-01       1.500e-02           0.180          -0.021           0.983       9.059e-04         -0.7309
 183       1.214e-01      -9.729e-01       1.076e-02           0.231          -0.025           0.973       8.031e-04         -0.3949
 184       1.382e-01      -9.729e-01       6.530e-03           0.259          -0.027           0.965       6.298e-04         -0.1887
 185       1.503e-01      -9.729e-01       3.011e-03           0.312          -0.032           0.949       4.062e-04          0.0049
 186       1.566e-01      -9.729e-01       7.364e-04           0.417          -0.042           0.908       1.455e-04          0.2143
Strip 9
 187       1.609e-01      -9.293e-01       5.794e-04          -0.332           0.034          -0.943       1.610e-04          0.5177
 188       1.545e-01      -9.293e-01       2.187e-03          -0.209           0.022          -0.978       4.533e-04          0.5190
 189       1.421e-01      -9.293e-01       3.827e-03          -0.080           0.010          -0.997       7.009e-04          0.5598
 190       1.248e-01      -9.293e-01       4.210e-03           0.024           0.001          -1.000       8.977e-04          0.5562
 191       1.040e-01      -9.293e-01       2.947e-03           0.093          -0.004          -0.996       1.028e-03          0.5449
 192       8.127e-02      -9.293e-01       5.060e-04           0.121          -0.006          -0.993       1.075e-03          0.5487
 193       5.859e-02      -9.293e-01      -1.919e-03           0.091          -0.005          -0.996       1.028e-03          0.6053
 194       3.775e-02      -9.293e-01      -3.311e-03           0.038          -0.003          -0.999       8.981e-04          0.7376
 195       2.044e-02      -9.293e-01      -3.539e-03          -0.019          -0.002          -1.000       6.987e-04          0.9246
 196       8.052e-03      -9.293e-01      -2.788e-03          -0.125          -0.001          -0.992       4.466e-04          0.8892
 197       1.597e-03      -9.293e-01      -8.783e-04          -0.621           0.000          -0.784       1.937e-04         -1.8882
 198       1.597e-03      -9.293e-01       3.390e-03          -0.874          -0.000           0.486       3.124e-04         -9.0493
 199       8.052e-03      -9.293e-01       9.145e-03          -0.502          -0.002           0.865       5.125e-04         -5.3293
 200       2.044e-02      -9.293e-01       1.427e-02          -0.294          -0.005           0.956       7.309e-04         -3.3609
 201       3.775e-02      -9.293e-01       1.797e-02          -0.140          -0.008           0.990       9.063e-04         -2.4305
 202       5.859e-02      -9.293e-01       1.947e-02          -0.012          -0.012           1.000       1.024e-03         -1.7726
 203       8.127e-02      -9.293e-01       1.853e-02           0.092          -0.016           0.996       1.071e-03         -1.2382
 204       1.040e-01      -9.293e-01       1.542e-02           0.180          -0.021           0.983       1.041e-03         -0.7712
 205       1.248e-01      -9.293e-01       1.107e-02           0.231          -0.025           0.973       9.227e-04         -0.4159
 206       1.421e-01      -9.293e-01       6.713e-03           0.259          -0.027           0.965       7.236e-04         -0.1959
 207       1.545e-01      -9.293e-01       3.095e-03           0.312          -0.032           0.949       4.667e-04          0.0096
 208       1.609e-01      -9.293e-01       7.571e-04           0.417          -0.042           0.908       1.672e-04          0.2262
Strip 10
 209       1.658e-01      -8.809e-01       5.970e-04          -0.332           0.034          -0.943       1.825e-04          0.5254
 210       1.592e-01      -8.809e-01       2.253e-03          -0.209           0.022          -0.978       5.138e-04          0.5278
 211       1.464e-01      -8.809e-01       3.943e-03          -0.080           0.010          -0.997       7.944e-04          0.5698
 212       1.286e-01      -8.809e-01       4.337e-03           0.024           0.001          -1.000       1.017e-03          0.5681
 213       1.071e-01      -8.809e-01       3.036e-03           0.093          -0.004          -0.996       1.165e-03          0.5601
 214       8.373e-02      -8.809e-01       5.213e-04           0.121          -0.006          -0.993       1.218e-03          0.5683
 215       6.037e-02      -8.809e-01      -1.978e-03           0.091          -0.005          -0.996       1.165e-03          0.6284
 216       3.890e-02      -8.809e-01      -3.411e-03           0.038          -0.003          -0.999       1.018e-03          0.7611
 217       2.106e-02      -8.809e-01      -3.646e-03          -0.019          -0.002          -1.000       7.920e-04          0.9409
 218       8.295e-03      -8.809e-01      -2.872e-03          -0.125          -0.001          -0.992       5.062e-04          0.8526
 219       1.645e-03      -8.809e-01      -9.048e-04          -0.621           0.000          -0.784       2.196e-04         -2.2020
 220       1.645e-03      -8.809e-01       3.493e-03          -0.874          -0.000           0.486       3.541e-04         -9.6420
 221       8.295e-03      -8.809e-01       9.422e-03          -0.502          -0.002           0.865       5.809e-04         -5.5869
 222       2.106e-02      -8.809e-01       1.470e-02          -0.294          -0.005           0.956       8.284e-04         -3.5027
 223       3.890e-02      -8.809e-01       1.852e-02          -0.140          -0.008           0.990       1.027e-03         -2.5272
 224       6.037e-02      -8.809e-01       2.006e-02          -0.012          -0.012           1.000       1.160e-03         -1.8422
 225       8.373e-02      -8.809e-01       1.909e-02           0.092          -0.016           0.996       1.214e-03         -1.2869
 226       1.071e-01      -8.809e-01       1.588e-02           0.180          -0.021           0.983       1.180e-03         -0.8020
 227       1.286e-01      -8.809e-01       1.140e-02           0.231          -0.025           0.973       1.046e-03         -0.4325
 228       1.464e-01      -8.809e-01       6.916e-03           0.259          -0.027           0.965       8.202e-04         -0.2025
 229       1.592e-01      -8.809e-01       3.189e-03           0.312          -0.032           0.949       5.290e-04          0.0116
 230       1.658e-01      -8.809e-01       7.799e-04           0.417          -0.042           0.908       1.896e-04          0.2332
Strip 11
 231       1.711e-01      -8.280e-01       6.161e-04          -0.332           0.034          -0.943       2.046e-04          0.5305
 232       1.643e-01      -8.280e-01       2.325e-03          -0.209           0.022          -0.978       5.758e-04          0.5337
 233       1.511e-01      -8.280e-01       4.069e-03          -0.080           0.010          -0.997       8.904e-04          0.5765
 234       1.327e-01      -8.280e-01       4.476e-03           0.024           0.001          -1.000       1.140e-03          0.5763
 235       1.105e-01      -8.280e-01       3.134e-03           0.093          -0.004          -0.996       1.306e-03          0.5706
 236       8.642e-02      -8.280e-01       5.381e-04           0.121          -0.006          -0.993       1.365e-03          0.5821
 237       6.230e-02      -8.280e-01      -2.041e-03           0.091          -0.005          -0.996       1.306e-03          0.6448
 238       4.014e-02      -8.280e-01      -3.521e-03           0.038          -0.003          -0.999       1.141e-03          0.7776
 239       2.173e-02      -8.280e-01      -3.762e-03          -0.019          -0.002          -1.000       8.876e-04          0.9518
 240       8.561e-03      -8.280e-01      -2.965e-03          -0.125          -0.001          -0.992       5.674e-04          0.8213
 241       1.698e-03      -8.280e-01      -9.338e-04          -0.621           0.000          -0.784       2.461e-04         -2.4518
 242       1.698e-03      -8.280e-01       3.605e-03          -0.874          -0.000           0.486       3.969e-04        -10.1052
 243       8.561e-03      -8.280e-01       9.724e-03          -0.502          -0.002           0.865       6.511e-04         -5.7861
 244       2.173e-02      -8.280e-01       1.517e-02          -0.294          -0.005           0.956       9.285e-04         -3.6109
 245       4.014e-02      -8.280e-01       1.911e-02          -0.140          -0.008           0.990       1.151e-03         -2.6004
 246       6.230e-02      -8.280e-01       2.071e-02          -0.012          -0.012           1.000       1.300e-03         -1.8942
 247       8.642e-02      -8.280e-01       1.970e-02           0.092          -0.016           0.996       1.361e-03         -1.3230
 248       1.105e-01      -8.280e-01       1.639e-02           0.180          -0.021           0.983       1.322e-03         -0.8248
 249       1.327e-01      -8.280e-01       1.177e-02           0.231          -0.025           0.973       1.172e-03         -0.4451
 250       1.511e-01      -8.280e-01       7.138e-03           0.259          -0.027           0.965       9.193e-04         -0.2077
 251       1.643e-01      -8.280e-01       3.291e-03           0.312          -0.032           0.949       5.929e-04          0.0124
 252       1.711e-01      -8.280e-01       8.050e-04           0.417          -0.042           0.908       2.125e-04          0.2378
Strip 12
 253       1.769e-01      -7.709e-01       6.368e-04          -0.332           0.034          -0.943       2.271e-04          0.5340
 254       1.698e-01      -7.709e-01       2.403e-03          -0.209           0.022          -0.978       6.392e-04          0.5377
 255       1.562e-01      -7.709e-01       4.206e-03          -0.080           0.010          -0.997       9.885e-04          0.5812
 256       1.371e-01      -7.709e-01       4.626e-03           0.024           0.001          -1.000       1.266e-03          0.5819
 257       1.142e-01      -7.709e-01       3.239e-03           0.093          -0.004          -0.996       1.450e-03          0.5779
 258       8.932e-02      -7.709e-01       5.561e-04           0.121          -0.006          -0.993       1.516e-03          0.5916
 259       6.439e-02      -7.709e-01      -2.109e-03           0.091          -0.005          -0.996       1.450e-03          0.6563
 260       4.149e-02      -7.709e-01      -3.639e-03           0.038          -0.003          -0.999       1.267e-03          0.7893
 261       2.246e-02      -7.709e-01      -3.889e-03          -0.019          -0.002          -1.000       9.854e-04          0.9590
 262       8.848e-03      -7.709e-01      -3.064e-03          -0.125          -0.001          -0.992       6.299e-04          0.7963
 263       1.755e-03      -7.709e-01      -9.652e-04          -0.621           0.000          -0.784       2.732e-04         -2.6414
 264       1.755e-03      -7.709e-01       3.726e-03          -0.874          -0.000           0.486       4.406e-04        -10.4518
 265       8.848e-03      -7.709e-01       1.005e-02          -0.502          -0.002           0.865       7.227e-04         -5.9341
 266       2.246e-02      -7.709e-01       1.568e-02          -0.294          -0.005           0.956       1.031e-03         -3.6909
 267       4.149e-02      -7.709e-01       1.975e-02          -0.140          -0.008           0.990       1.278e-03         -2.6538
 268       6.439e-02      -7.709e-01       2.140e-02          -0.012          -0.012           1.000       1.444e-03         -1.9319
 269       8.932e-02      -7.709e-01       2.036e-02           0.092          -0.016           0.996       1.511e-03         -1.3490
 270       1.142e-01      -7.709e-01       1.694e-02           0.180          -0.021           0.983       1.468e-03         -0.8412
 271       1.371e-01      -7.709e-01       1.216e-02           0.231          -0.025           0.973       1.301e-03         -0.4541
 272       1.562e-01      -7.709e-01       7.378e-03           0.259          -0.027           0.965       1.021e-03         -0.2116
 273       1.698e-01      -7.709e-01       3.402e-03           0.312          -0.032           0.949       6.582e-04          0.0129
 274       1.769e-01      -7.709e-01       8.320e-04           0.417          -0.042           0.908       2.359e-04          0.2408
Strip 13
 275       1.830e-01      -7.098e-01       6.589e-04          -0.332           0.034          -0.943       2.500e-04          0.5364
 276       1.757e-01      -7.098e-01       2.487e-03          -0.209           0.022          -0.978       7.037e-04          0.5405
 277       1.616e-01      -7.098e-01       4.351e-03          -0.080           0.010          -0.997       1.088e-03          0.5844
 278       1.419e-01      -7.098e-01       4.787e-03           0.024           0.001          -1.000       1.394e-03          0.5858
 279       1.182e-01      -7.098e-01       3.351e-03           0.093          -0.004          -0.996       1.596e-03          0.5829
 280       9.241e-02      -7.098e-01       5.754e-04           0.121          -0.006          -0.993       1.668e-03          0.5981
 281       6.663e-02      -7.098e-01      -2.183e-03           0.091          -0.005          -0.996       1.596e-03          0.6640
 282       4.293e-02      -7.098e-01      -3.765e-03           0.038          -0.003          -0.999       1.394e-03          0.7971
 283       2.324e-02      -7.098e-01      -4.024e-03          -0.019          -0.002          -1.000       1.085e-03          0.9637
 284       9.155e-03      -7.098e-01      -3.170e-03          -0.125          -0.001          -0.992       6.934e-04          0.7780
 285       1.816e-03      -7.098e-01      -9.987e-04          -0.621           0.000          -0.784       3.008e-04         -2.7763
 286       1.816e-03      -7.098e-01       3.855e-03          -0.874          -0.000           0.486       4.850e-04        -10.6963
 287       9.155e-03      -7.098e-01       1.040e-02          -0.502          -0.002           0.865       7.956e-04         -6.0379
 288       2.324e-02      -7.098e-01       1.622e-02          -0.294          -0.005           0.956       1.135e-03         -3.7467
 289       4.293e-02      -7.098e-01       2.044e-02          -0.140          -0.008           0.990       1.407e-03         -2.6910
 290       6.663e-02      -7.098e-01       2.214e-02          -0.012          -0.012           1.000       1.589e-03         -1.9579
 291       9.241e-02      -7.098e-01       2.107e-02           0.092          -0.016           0.996       1.663e-03         -1.3669
 292       1.182e-01      -7.098e-01       1.753e-02           0.180          -0.021           0.983       1.616e-03         -0.8523
 293       1.419e-01      -7.098e-01       1.258e-02           0.231          -0.025           0.973       1.432e-03         -0.4602
 294       1.616e-01      -7.098e-01       7.634e-03           0.259          -0.027           0.965       1.123e-03         -0.2142
 295       1.757e-01      -7.098e-01       3.520e-03           0.312          -0.032           0.949       7.246e-04          0.0133
 296       1.830e-01      -7.098e-01       8.608e-04           0.417          -0.042           0.908       2.596e-04          0.2431
Strip 14
 297       1.895e-01      -6.452e-01       6.823e-04          -0.332           0.034          -0.943       2.731e-04          0.5380
 298       1.819e-01      -6.452e-01       2.575e-03          -0.209           0.022          -0.978       7.687e-04          0.5423
 299       1.673e-01      -6.452e-01       4.506e-03          -0.080           0.010          -0.997       1.189e-03          0.5864
 300       1.469e-01      -6.452e-01       4.957e-03           0.024           0.001          -1.000       1.522e-03          0.5882
 301       1.224e-01      -6.452e-01       3.470e-03           0.093          -0.004          -0.996       1.743e-03          0.5861
 302       9.570e-02      -6.452e-01       5.959e-04           0.121          -0.006          -0.993       1.822e-03          0.6022
 303       6.899e-02      -6.452e-01      -2.260e-03           0.091          -0.005          -0.996       1.743e-03          0.6690
 304       4.445e-02      -6.452e-01      -3.899e-03           0.038          -0.003          -0.999       1.523e-03          0.8020
 305       2.407e-02      -6.452e-01      -4.167e-03          -0.019          -0.002          -1.000       1.185e-03          0.9666
 306       9.481e-03      -6.452e-01      -3.283e-03          -0.125          -0.001          -0.992       7.574e-04          0.7659
 307       1.880e-03      -6.452e-01      -1.034e-03          -0.621           0.000          -0.784       3.286e-04         -2.8630
 308       1.880e-03      -6.452e-01       3.992e-03          -0.874          -0.000           0.486       5.298e-04        -10.8522
 309       9.481e-03      -6.452e-01       1.077e-02          -0.502          -0.002           0.865       8.691e-04         -6.1039
 310       2.407e-02      -6.452e-01       1.680e-02          -0.294          -0.005           0.956       1.240e-03         -3.7822
 311       4.445e-02      -6.452e-01       2.116e-02          -0.140          -0.008           0.990       1.537e-03         -2.7146
 312       6.899e-02      -6.452e-01       2.293e-02          -0.012          -0.012           1.000       1.736e-03         -1.9745
 313       9.570e-02      -6.452e-01       2.182e-02           0.092          -0.016           0.996       1.817e-03         -1.3781
 314       1.224e-01      -6.452e-01       1.815e-02           0.180          -0.021           0.983       1.765e-03         -0.8593
 315       1.469e-01      -6.452e-01       1.303e-02           0.231          -0.025           0.973       1.565e-03         -0.4639
 316       1.673e-01      -6.452e-01       7.905e-03           0.259          -0.027           0.965       1.227e-03         -0.2156
 317       1.819e-01      -6.452e-01       3.645e-03           0.312          -0.032           0.949       7.915e-04          0.0138
 318       1.895e-01      -6.452e-01       8.914e-04           0.417          -0.042           0.908       2.836e-04          0.2447
Strip 15
 319       1.963e-01      -5.773e-01       7.069e-04          -0.332           0.034          -0.943       2.962e-04          0.5390
 320       1.885e-01      -5.773e-01       2.668e-03          -0.209           0.022          -0.978       8.338e-04          0.5435
 321       1.734e-01      -5.773e-01       4.668e-03          -0.080           0.010          -0.997       1.289e-03          0.5877
 322       1.522e-01      -5.773e-01       5.135e-03           0.024           0.001          -1.000       1.651e-03          0.5897
 323       1.268e-01      -5.773e-01       3.595e-03           0.093          -0.004          -0.996       1.891e-03          0.5879
 324       9.915e-02      -5.773e-01       6.173e-04           0.121          -0.006          -0.993       1.977e-03          0.6046
 325       7.148e-02      -5.773e-01      -2.342e-03           0.091          -0.005          -0.996       1.891e-03          0.6717
 326       4.606e-02      -5.773e-01      -4.039e-03           0.038          -0.003          -0.999       1.652e-03          0.8047
 327       2.493e-02      -5.773e-01      -4.317e-03          -0.019          -0.002          -1.000       1.285e-03          0.9681
 328       9.822e-03      -5.773e-01      -3.401e-03          -0.125          -0.001          -0.992       8.216e-04          0.7596
 329       1.948e-03      -5.773e-01      -1.071e-03          -0.621           0.000          -0.784       3.564e-04         -2.9073
 330       1.948e-03      -5.773e-01       4.136e-03          -0.874          -0.000           0.486       5.747e-04        -10.9315
 331       9.822e-03      -5.773e-01       1.116e-02          -0.502          -0.002           0.865       9.428e-04         -6.1374
 332       2.493e-02      -5.773e-01       1.741e-02          -0.294          -0.005           0.956       1.345e-03         -3.8003
 333       4.606e-02      -5.773e-01       2.193e-02          -0.140          -0.008           0.990       1.667e-03         -2.7268
 334       7.148e-02      -5.773e-01       2.376e-02          -0.012          -0.012           1.000       1.883e-03         -1.9831
 335       9.915e-02      -5.773e-01       2.260e-02           0.092          -0.016           0.996       1.971e-03         -1.3840
 336       1.268e-01      -5.773e-01       1.881e-02           0.180          -0.021           0.983       1.915e-03         -0.8628
 337       1.522e-01      -5.773e-01       1.350e-02           0.231          -0.025           0.973       1.697e-03         -0.4656
 338       1.734e-01      -5.773e-01       8.190e-03           0.259          -0.027           0.965       1.331e-03         -0.2161
 339       1.885e-01      -5.773e-01       3.776e-03           0.312          -0.032           0.949       8.586e-04          0.0144
 340       1.963e-01      -5.773e-01       9.236e-04           0.417          -0.042           0.908       3.076e-04          0.2460
Strip 16
 341       2.035e-01      -5.064e-01       7.325e-04          -0.332           0.034          -0.943       3.192e-04          0.5397
 342       1.953e-01      -5.064e-01       2.765e-03          -0.209           0.022          -0.978       8.985e-04          0.5441
 343       1.797e-01      -5.064e-01       4.838e-03          -0.080           0.010          -0.997       1.389e-03          0.5883
 344       1.578e-01      -5.064e-01       5.322e-03           0.024           0.001          -1.000       1.779e-03          0.5903
 345       1.314e-01      -5.064e-01       3.726e-03           0.093          -0.004          -0.996       2.038e-03          0.5886
 346       1.027e-01      -5.064e-01       6.397e-04           0.121          -0.006          -0.993       2.130e-03          0.6054
 347       7.408e-02      -5.064e-01      -2.427e-03           0.091          -0.005          -0.996       2.037e-03          0.6726
 348       4.773e-02      -5.064e-01      -4.186e-03           0.038          -0.003          -0.999       1.780e-03          0.8055
 349       2.584e-02      -5.064e-01      -4.473e-03          -0.019          -0.002          -1.000       1.385e-03          0.9685
 350       1.018e-02      -5.064e-01      -3.525e-03          -0.125          -0.001          -0.992       8.853e-04          0.7585
 351       2.019e-03      -5.064e-01      -1.110e-03          -0.621           0.000          -0.784       3.840e-04         -2.9146
 352       2.019e-03      -5.064e-01       4.286e-03          -0.874          -0.000           0.486       6.193e-04        -10.9435
 353       1.018e-02      -5.064e-01       1.156e-02          -0.502          -0.002           0.865       1.016e-03         -6.1424
 354       2.584e-02      -5.064e-01       1.804e-02          -0.294          -0.005           0.956       1.449e-03         -3.8034
 355       4.773e-02      -5.064e-01       2.272e-02          -0.140          -0.008           0.990       1.797e-03         -2.7292
 356       7.408e-02      -5.064e-01       2.462e-02          -0.012          -0.012           1.000       2.029e-03         -1.9849
 357       1.027e-01      -5.064e-01       2.342e-02           0.092          -0.016           0.996       2.124e-03         -1.3852
 358       1.314e-01      -5.064e-01       1.949e-02           0.180          -0.021           0.983       2.063e-03         -0.8634
 359       1.578e-01      -5.064e-01       1.399e-02           0.231          -0.025           0.973       1.829e-03         -0.4656
 360       1.797e-01      -5.064e-01       8.487e-03           0.259          -0.027           0.965       1.434e-03         -0.2156
 361       1.953e-01      -5.064e-01       3.913e-03           0.312          -0.032           0.949       9.252e-04          0.0153
 362       2.035e-01      -5.064e-01       9.571e-04           0.417          -0.042           0.908       3.315e-04          0.2472
Strip 17
 363       2.109e-01      -4.329e-01       7.591e-04          -0.332           0.034          -0.943       3.417e-04          0.5400
 364       2.024e-01      -4.329e-01       2.865e-03          -0.209           0.022          -0.978       9.620e-04          0.5444
 365       1.862e-01      -4.329e-01       5.014e-03          -0.080           0.010          -0.997       1.487e-03          0.5884
 366       1.635e-01      -4.329e-01       5.515e-03           0.024           0.001          -1.000       1.905e-03          0.5902
 367       1.362e-01      -4.329e-01       3.861e-03           0.093          -0.004          -0.996       2.182e-03          0.5883
 368       1.065e-01      -4.329e-01       6.630e-04           0.121          -0.006          -0.993       2.281e-03          0.6049
 369       7.677e-02      -4.329e-01      -2.515e-03           0.091          -0.005          -0.996       2.181e-03          0.6718
 370       4.946e-02      -4.329e-01      -4.338e-03           0.038          -0.003          -0.999       1.906e-03          0.8046
 371       2.678e-02      -4.329e-01      -4.636e-03          -0.019          -0.002          -1.000       1.483e-03          0.9679
 372       1.055e-02      -4.329e-01      -3.653e-03          -0.125          -0.001          -0.992       9.479e-04          0.7620
 373       2.092e-03      -4.329e-01      -1.151e-03          -0.621           0.000          -0.784       4.112e-04         -2.8883
 374       2.092e-03      -4.329e-01       4.441e-03          -0.874          -0.000           0.486       6.631e-04        -10.8954
 375       1.055e-02      -4.329e-01       1.198e-02          -0.502          -0.002           0.865       1.088e-03         -6.1221
 376       2.678e-02      -4.329e-01       1.869e-02          -0.294          -0.005           0.956       1.551e-03         -3.7930
 377       4.946e-02      -4.329e-01       2.355e-02          -0.140          -0.008           0.990       1.923e-03         -2.7226
 378       7.677e-02      -4.329e-01       2.551e-02          -0.012          -0.012           1.000       2.173e-03         -1.9805
 379       1.065e-01      -4.329e-01       2.427e-02           0.092          -0.016           0.996       2.274e-03         -1.3821
 380       1.362e-01      -4.329e-01       2.020e-02           0.180          -0.021           0.983       2.209e-03         -0.8611
 381       1.635e-01      -4.329e-01       1.450e-02           0.231          -0.025           0.973       1.958e-03         -0.4639
 382       1.862e-01      -4.329e-01       8.795e-03           0.259          -0.027           0.965       1.536e-03         -0.2143
 383       2.024e-01      -4.329e-01       4.055e-03           0.312          -0.032           0.949       9.905e-04          0.0165
 384       2.109e-01      -4.329e-01       9.918e-04           0.417          -0.042           0.908       3.549e-04          0.2483
Strip 18
 385       2.185e-01      -3.573e-01       7.865e-04          -0.332           0.034          -0.943       3.636e-04          0.5400
 386       2.097e-01      -3.573e-01       2.969e-03          -0.209           0.022          -0.978       1.024e-03          0.5442
 387       1.929e-01      -3.573e-01       5.195e-03          -0.080           0.010          -0.997       1.583e-03          0.5879
 388       1.694e-01      -3.573e-01       5.714e-03           0.024           0.001          -1.000       2.027e-03          0.5895
 389       1.411e-01      -3.573e-01       4.000e-03           0.093          -0.004          -0.996       2.321e-03          0.5872
 390       1.103e-01      -3.573e-01       6.869e-04           0.121          -0.006          -0.993       2.427e-03          0.6032
 391       7.954e-02      -3.573e-01      -2.605e-03           0.091          -0.005          -0.996       2.321e-03          0.6696
 392       5.125e-02      -3.573e-01      -4.494e-03           0.038          -0.003          -0.999       2.028e-03          0.8021
 393       2.774e-02      -3.573e-01      -4.803e-03          -0.019          -0.002          -1.000       1.578e-03          0.9665
 394       1.093e-02      -3.573e-01      -3.785e-03          -0.125          -0.001          -0.992       1.009e-03          0.7697
 395       2.167e-03      -3.573e-01      -1.192e-03          -0.621           0.000          -0.784       4.375e-04         -2.8314
 396       2.167e-03      -3.573e-01       4.602e-03          -0.874          -0.000           0.486       7.055e-04        -10.7920
 397       1.093e-02      -3.573e-01       1.241e-02          -0.502          -0.002           0.865       1.157e-03         -6.0783
 398       2.774e-02      -3.573e-01       1.937e-02          -0.294          -0.005           0.956       1.651e-03         -3.7700
 399       5.125e-02      -3.573e-01       2.440e-02          -0.140          -0.008           0.990       2.047e-03         -2.7078
 400       7.954e-02      -3.573e-01       2.643e-02          -0.012          -0.012           1.000       2.312e-03         -1.9702
 401       1.103e-01      -3.573e-01       2.515e-02           0.092          -0.016           0.996       2.420e-03         -1.3748
 402       1.411e-01      -3.573e-01       2.093e-02           0.180          -0.021           0.983       2.350e-03         -0.8562
 403       1.694e-01      -3.573e-01       1.502e-02           0.231          -0.025           0.973       2.084e-03         -0.4605
 404       1.929e-01      -3.573e-01       9.113e-03           0.259          -0.027           0.965       1.634e-03         -0.2119
 405       2.097e-01      -3.573e-01       4.201e-03           0.312          -0.032           0.949       1.054e-03          0.0180
 406       2.185e-01      -3.573e-01       1.028e-03           0.417          -0.042           0.908       3.777e-04          0.2495
Strip 19
 407       2.263e-01      -2.798e-01       8.146e-04          -0.332           0.034          -0.943       3.846e-04          0.5398
 408       2.172e-01      -2.798e-01       3.074e-03          -0.209           0.022          -0.978       1.083e-03          0.5438
 409       1.998e-01      -2.798e-01       5.380e-03          -0.080           0.010          -0.997       1.674e-03          0.5871
 410       1.754e-01      -2.798e-01       5.918e-03           0.024           0.001          -1.000       2.144e-03          0.5881
 411       1.461e-01      -2.798e-01       4.143e-03           0.093          -0.004          -0.996       2.455e-03          0.5851
 412       1.143e-01      -2.798e-01       7.114e-04           0.121          -0.006          -0.993       2.567e-03          0.6003
 413       8.237e-02      -2.798e-01      -2.698e-03           0.091          -0.005          -0.996       2.455e-03          0.6659
 414       5.307e-02      -2.798e-01      -4.655e-03           0.038          -0.003          -0.999       2.145e-03          0.7982
 415       2.873e-02      -2.798e-01      -4.974e-03          -0.019          -0.002          -1.000       1.669e-03          0.9641
 416       1.132e-02      -2.798e-01      -3.920e-03          -0.125          -0.001          -0.992       1.067e-03          0.7812
 417       2.245e-03      -2.798e-01      -1.235e-03          -0.621           0.000          -0.784       4.627e-04         -2.7463
 418       2.245e-03      -2.798e-01       4.766e-03          -0.874          -0.000           0.486       7.462e-04        -10.6364
 419       1.132e-02      -2.798e-01       1.286e-02          -0.502          -0.002           0.865       1.224e-03         -6.0118
 420       2.873e-02      -2.798e-01       2.006e-02          -0.294          -0.005           0.956       1.746e-03         -3.7346
 421       5.307e-02      -2.798e-01       2.527e-02          -0.140          -0.008           0.990       2.165e-03         -2.6845
 422       8.237e-02      -2.798e-01       2.738e-02          -0.012          -0.012           1.000       2.445e-03         -1.9539
 423       1.143e-01      -2.798e-01       2.605e-02           0.092          -0.016           0.996       2.559e-03         -1.3633
 424       1.461e-01      -2.798e-01       2.167e-02           0.180          -0.021           0.983       2.486e-03         -0.8483
 425       1.754e-01      -2.798e-01       1.556e-02           0.231          -0.025           0.973       2.204e-03         -0.4553
 426       1.998e-01      -2.798e-01       9.438e-03           0.259          -0.027           0.965       1.728e-03         -0.2084
 427       2.172e-01      -2.798e-01       4.351e-03           0.312          -0.032           0.949       1.115e-03          0.0201
 428       2.263e-01      -2.798e-01       1.064e-03           0.417          -0.042           0.908       3.994e-04          0.2508
Strip 20
 429       2.342e-01      -2.009e-01       8.431e-04          -0.332           0.034          -0.943       4.043e-04          0.5393
 430       2.248e-01      -2.009e-01       3.182e-03          -0.209           0.022          -0.978       1.138e-03          0.5429
 431       2.068e-01      -2.009e-01       5.568e-03          -0.080           0.010          -0.997       1.760e-03          0.5857
 432       1.816e-01      -2.009e-01       6.125e-03           0.024           0.001          -1.000       2.254e-03          0.5860
 433       1.513e-01      -2.009e-01       4.288e-03           0.093          -0.004          -0.996       2.581e-03          0.5822
 434       1.183e-01      -2.009e-01       7.363e-04           0.121          -0.006          -0.993       2.698e-03          0.5962
 435       8.526e-02      -2.009e-01      -2.793e-03           0.091          -0.005          -0.996       2.581e-03          0.6607
 436       5.494e-02      -2.009e-01      -4.818e-03           0.038          -0.003          -0.999       2.255e-03          0.7927
 437       2.974e-02      -2.009e-01      -5.149e-03          -0.019          -0.002          -1.000       1.754e-03          0.9607
 438       1.172e-02      -2.009e-01      -4.057e-03          -0.125          -0.001          -0.992       1.121e-03          0.7962
 439       2.323e-03      -2.009e-01      -1.278e-03          -0.621           0.000          -0.784       4.865e-04         -2.6340
 440       2.323e-03      -2.009e-01       4.933e-03          -0.874          -0.000           0.486       7.844e-04        -10.4301
 441       1.172e-02      -2.009e-01       1.331e-02          -0.502          -0.002           0.865       1.287e-03         -5.9230
 442       2.974e-02      -2.009e-01       2.076e-02          -0.294          -0.005           0.956       1.835e-03         -3.6868
 443       5.494e-02      -2.009e-01       2.615e-02          -0.140          -0.008           0.990       2.276e-03         -2.6525
 444       8.526e-02      -2.009e-01       2.834e-02          -0.012          -0.012           1.000       2.570e-03         -1.9308
 445       1.183e-01      -2.009e-01       2.696e-02           0.092          -0.016           0.996       2.690e-03         -1.3465
 446       1.513e-01      -2.009e-01       2.243e-02           0.180          -0.021           0.983       2.613e-03         -0.8365
 447       1.816e-01      -2.009e-01       1.610e-02           0.231          -0.025           0.973       2.317e-03         -0.4475
 448       2.068e-01      -2.009e-01       9.769e-03           0.259          -0.027           0.965       1.817e-03         -0.2033
 449       2.248e-01      -2.009e-01       4.504e-03           0.312          -0.032           0.949       1.172e-03          0.0229
 450       2.342e-01      -2.009e-01       1.102e-03           0.417          -0.042           0.908       4.199e-04          0.2524
Strip 21
 451       2.422e-01      -1.209e-01       8.721e-04          -0.332           0.034          -0.943       4.225e-04          0.5384
 452       2.325e-01      -1.209e-01       3.291e-03          -0.209           0.022          -0.978       1.189e-03          0.5416
 453       2.139e-01      -1.209e-01       5.760e-03          -0.080           0.010          -0.997       1.839e-03          0.5836
 454       1.878e-01      -1.209e-01       6.336e-03           0.024           0.001          -1.000       2.355e-03          0.5832
 455       1.565e-01      -1.209e-01       4.436e-03           0.093          -0.004          -0.996       2.697e-03          0.5781
 456       1.223e-01      -1.209e-01       7.616e-04           0.121          -0.006          -0.993       2.820e-03          0.5907
 457       8.819e-02      -1.209e-01      -2.889e-03           0.091          -0.005          -0.996       2.697e-03          0.6539
 458       5.682e-02      -1.209e-01      -4.983e-03           0.038          -0.003          -0.999       2.356e-03          0.7855
 459       3.076e-02      -1.209e-01      -5.326e-03          -0.019          -0.002          -1.000       1.833e-03          0.9561
 460       1.212e-02      -1.209e-01      -4.196e-03          -0.125          -0.001          -0.992       1.172e-03          0.8142
 461       2.403e-03      -1.209e-01      -1.322e-03          -0.621           0.000          -0.784       5.083e-04         -2.4960
 462       2.403e-03      -1.209e-01       5.102e-03          -0.874          -0.000           0.486       8.197e-04        -10.1751
 463       1.212e-02      -1.209e-01       1.376e-02          -0.502          -0.002           0.865       1.345e-03         -5.8121
 464       3.076e-02      -1.209e-01       2.147e-02          -0.294          -0.005           0.956       1.918e-03         -3.6257
 465       5.682e-02      -1.209e-01       2.705e-02          -0.140          -0.008           0.990       2.378e-03         -2.6101
 466       8.819e-02      -1.209e-01       2.931e-02          -0.012          -0.012           1.000       2.686e-03         -1.8988
 467       1.223e-01      -1.209e-01       2.789e-02           0.092          -0.016           0.996       2.811e-03         -1.3221
 468       1.565e-01      -1.209e-01       2.320e-02           0.180          -0.021           0.983       2.731e-03         -0.8187
 469       1.878e-01      -1.209e-01       1.665e-02           0.231          -0.025           0.973       2.421e-03         -0.4352
 470       2.139e-01      -1.209e-01       1.010e-02           0.259          -0.027           0.965       1.899e-03         -0.1953
 471       2.325e-01      -1.209e-01       4.658e-03           0.312          -0.032           0.949       1.225e-03          0.0272
 472       2.422e-01      -1.209e-01       1.139e-03           0.417          -0.042           0.908       4.388e-04          0.2548
Strip 22
 473       2.503e-01      -4.038e-02       9.012e-04          -0.332           0.034          -0.943       4.389e-04          0.5360
 474       2.403e-01      -4.038e-02       3.402e-03          -0.209           0.022          -0.978       1.235e-03          0.5387
 475       2.210e-01      -4.038e-02       5.952e-03          -0.080           0.010          -0.997       1.910e-03          0.5799
 476       1.941e-01      -4.038e-02       6.547e-03           0.024           0.001          -1.000       2.447e-03          0.5790
 477       1.617e-01      -4.038e-02       4.584e-03           0.093          -0.004          -0.996       2.802e-03          0.5730
 478       1.264e-01      -4.038e-02       7.871e-04           0.121          -0.006          -0.993       2.929e-03          0.5838
 479       9.114e-02      -4.038e-02      -2.985e-03           0.091          -0.005          -0.996       2.801e-03          0.6453
 480       5.872e-02      -4.038e-02      -5.150e-03           0.038          -0.003          -0.999       2.448e-03          0.7765
 481       3.179e-02      -4.038e-02      -5.504e-03          -0.019          -0.002          -1.000       1.904e-03          0.9502
 482       1.252e-02      -4.038e-02      -4.337e-03          -0.125          -0.001          -0.992       1.217e-03          0.8351
 483       2.483e-03      -4.038e-02      -1.366e-03          -0.621           0.000          -0.784       5.280e-04         -2.3344
 484       2.483e-03      -4.038e-02       5.273e-03          -0.874          -0.000           0.486       8.515e-04         -9.8757
 485       1.252e-02      -4.038e-02       1.422e-02          -0.502          -0.002           0.865       1.397e-03         -5.6810
 486       3.179e-02      -4.038e-02       2.219e-02          -0.294          -0.005           0.956       1.992e-03         -3.5510
 487       5.872e-02      -4.038e-02       2.795e-02          -0.140          -0.008           0.990       2.470e-03         -2.5548
 488       9.114e-02      -4.038e-02       3.029e-02          -0.012          -0.012           1.000       2.790e-03         -1.8532
 489       1.264e-01      -4.038e-02       2.882e-02           0.092          -0.016           0.996       2.920e-03         -1.2835
 490       1.617e-01      -4.038e-02       2.398e-02           0.180          -0.021           0.983       2.837e-03         -0.7879
 491       1.941e-01      -4.038e-02       1.721e-02           0.231          -0.025           0.973       2.515e-03         -0.4128
 492       2.210e-01      -4.038e-02       1.044e-02           0.259          -0.027           0.965       1.972e-03         -0.1804
 493       2.403e-01      -4.038e-02       4.814e-03           0.312          -0.032           0.949       1.272e-03          0.0345
 494       2.503e-01      -4.038e-02       1.178e-03           0.417          -0.042           0.908       4.558e-04          0.2586
Strip 23
 495       2.503e-01       4.038e-02       9.012e-04          -0.332          -0.034          -0.943       4.389e-04          0.5360
 496       2.403e-01       4.038e-02       3.402e-03          -0.209          -0.022          -0.978       1.235e-03          0.5387
 497       2.210e-01       4.038e-02       5.952e-03          -0.080          -0.010          -0.997       1.910e-03          0.5799
 498       1.941e-01       4.038e-02       6.547e-03           0.024          -0.001          -1.000       2.447e-03          0.5790
 499       1.617e-01       4.038e-02       4.584e-03           0.093           0.004          -0.996       2.802e-03          0.5730
 500       1.264e-01       4.038e-02       7.871e-04           0.121           0.006          -0.993       2.929e-03          0.5838
 501       9.114e-02       4.038e-02      -2.985e-03           0.091           0.005          -0.996       2.801e-03          0.6453
 502       5.872e-02       4.038e-02      -5.150e-03           0.038           0.003          -0.999       2.448e-03          0.7765
 503       3.179e-02       4.038e-02      -5.504e-03          -0.019           0.002          -1.000       1.904e-03          0.9502
 504       1.252e-02       4.038e-02      -4.337e-03          -0.125           0.001          -0.992       1.217e-03          0.8351
 505       2.483e-03       4.038e-02      -1.366e-03          -0.621          -0.000          -0.784       5.280e-04         -2.3344
 506       2.483e-03       4.038e-02       5.273e-03          -0.874           0.000           0.486       8.515e-04         -9.8757
 507       1.252e-02       4.038e-02       1.422e-02          -0.502           0.002           0.865       1.397e-03         -5.6810
 508       3.179e-02       4.038e-02       2.219e-02          -0.294           0.005           0.956       1.992e-03         -3.5510
 509       5.872e-02       4.038e-02       2.795e-02          -0.140           0.008           0.990       2.470e-03         -2.5548
 510       9.114e-02       4.038e-02       3.029e-02          -0.012           0.012           1.000       2.790e-03         -1.8532
 511       1.264e-01       4.038e-02       2.882e-02           0.092           0.016           0.996       2.920e-03         -1.2835
 512       1.617e-01       4.038e-02       2.398e-02           0.180           0.021           0.983       2.837e-03         -0.7879
 513       1.941e-01       4.038e-02       1.721e-02           0.231           0.025           0.973       2.515e-03         -0.4128
 514       2.210e-01       4.038e-02       1.044e-02           0.259           0.027           0.965       1.972e-03         -0.1804
 515       2.403e-01       4.038e-02       4.814e-03           0.312           0.032           0.949       1.272e-03          0.0345
 516       2.503e-01       4.038e-02       1.178e-03           0.417           0.042           0.908       4.558e-04          0.2586
Strip 24
 517       2.422e-01       1.209e-01       8.721e-04          -0.332          -0.034          -0.943       4.225e-04          0.5384
 518       2.325e-01       1.209e-01       3.291e-03          -0.209          -0.022          -0.978       1.189e-03          0.5416
 519       2.139e-01       1.209e-01       5.760e-03          -0.080          -0.010          -0.997       1.839e-03          0.5836
 520       1.878e-01       1.209e-01       6.336e-03           0.024          -0.001          -1.000       2.355e-03          0.5832
 521       1.565e-01       1.209e-01       4.436e-03           0.093           0.004          -0.996       2.697e-03          0.5781
 522       1.223e-01       1.209e-01       7.616e-04           0.121           0.006          -0.993       2.820e-03          0.5907
 523       8.819e-02       1.209e-01      -2.889e-03           0.091           0.005          -0.996       2.697e-03          0.6539
 524       5.682e-02       1.209e-01      -4.983e-03           0.038           0.003          -0.999       2.356e-03          0.7855
 525       3.076e-02       1.209e-01      -5.326e-03          -0.019           0.002          -1.000       1.833e-03          0.9561
 526       1.212e-02       1.209e-01      -4.196e-03          -0.125           0.001          -0.992       1.172e-03          0.8142
 527       2.403e-03       1.209e-01      -1.322e-03          -0.621          -0.000          -0.784       5.083e-04         -2.4960
 528       2.403e-03       1.209e-01       5.102e-03          -0.874           0.000           0.486       8.197e-04        -10.1751
 529       1.212e-02       1.209e-01       1.376e-02          -0.502           0.002           0.865       1.345e-03         -5.8121
 530       3.076e-02       1.209e-01       2.147e-02          -0.294           0.005           0.956       1.918e-03         -3.6257
 531       5.682e-02       1.209e-01       2.705e-02          -0.140           0.008           0.990       2.378e-03         -2.6101
 532       8.819e-02       1.209e-01       2.931e-02          -0.012           0.012           1.000       2.686e-03         -1.8988
 533       1.223e-01       1.209e-01       2.789e-02           0.092           0.016           0.996       2.811e-03         -1.3221
 534       1.565e-01       1.209e-01       2.320e-02           0.180           0.021           0.983       2.731e-03         -0.8187
 535       1.878e-01       1.209e-01       1.665e-02           0.231           0.025           0.973       2.421e-03         -0.4352
 536       2.139e-01       1.209e-01       1.010e-02           0.259           0.027           0.965       1.899e-03         -0.1953
 537       2.325e-01       1.209e-01       4.658e-03           0.312           0.032           0.949       1.225e-03          0.0272
 538       2.422e-01       1.209e-01       1.139e-03           0.417           0.042           0.908       4.388e-04          0.2548
Strip 25
 539       2.342e-01       2.009e-01       8.431e-04          -0.332          -0.034          -0.943       4.043e-04          0.5393
 540       2.248e-01       2.009e-01       3.182e-03          -0.209          -0.022          -0.978       1.138e-03          0.5429
 541       2.068e-01       2.009e-01       5.568e-03          -0.080          -0.010          -0.997       1.760e-03          0.5857
 542       1.816e-01       2.009e-01       6.125e-03           0.024          -0.001          -1.000       2.254e-03          0.5860
 543       1.513e-01       2.009e-01       4.288e-03           0.093           0.004          -0.996       2.581e-03          0.5822
 544       1.183e-01       2.009e-01       7.363e-04           0.121           0.006          -0.993       2.698e-03          0.5962
 545       8.526e-02       2.009e-01      -2.793e-03           0.091           0.005          -0.996       2.581e-03          0.6607
 546       5.494e-02       2.009e-01      -4.818e-03           0.038           0.003          -0.999       2.255e-03          0.7927
 547       2.974e-02       2.009e-01      -5.149e-03          -0.019           0.002          -1.000       1.754e-03          0.9607
 548       1.172e-02       2.009e-01      -4.057e-03          -0.125           0.001          -0.992       1.121e-03          0.7962
 549       2.323e-03       2.009e-01      -1.278e-03          -0.621          -0.000          -0.784       4.865e-04         -2.6340
 550       2.323e-03       2.009e-01       4.933e-03          -0.874           0.000           0.486       7.844e-04        -10.4301
 551       1.172e-02       2.009e-01       1.331e-02          -0.502           0.002           0.865       1.287e-03         -5.9230
 552       2.974e-02       2.009e-01       2.076e-02          -0.294           0.005           0.956       1.835e-03         -3.6868
 553       5.494e-02       2.009e-01       2.615e-02          -0.140           0.008           0.990       2.276e-03         -2.6525
 554       8.526e-02       2.009e-01       2.834e-02          -0.012           0.012           1.000       2.570e-03         -1.9308
 555       1.183e-01       2.009e-01       2.696e-02           0.092           0.016           0.996       2.690e-03         -1.3465
 556       1.513e-01       2.009e-01       2.243e-02           0.180           0.021           0.983       2.613e-03         -0.8365
 557       1.816e-01       2.009e-01       1.610e-02           0.231           0.025           0.973       2.317e-03         -0.4475
 558       2.068e-01       2.009e-01       9.769e-03           0.259           0.027           0.965       1.817e-03         -0.2033
 559       2.248e-01       2.009e-01       4.504e-03           0.312           0.032           0.949       1.172e-03          0.0229
 560       2.342e-01       2.009e-01       1.102e-03           0.417           0.042           0.908       4.199e-04          0.2524
Strip 26
 561       2.263e-01       2.798e-01       8.146e-04          -0.332          -0.034          -0.943       3.846e-04          0.5398
 562       2.172e-01       2.798e-01       3.074e-03          -0.209          -0.022          -0.978       1.083e-03          0.5438
 563       1.998e-01       2.798e-01       5.380e-03          -0.080          -0.010          -0.997       1.674e-03          0.5871
 564       1.754e-01       2.798e-01       5.918e-03           0.024          -0.001          -1.000       2.144e-03          0.5881
 565       1.461e-01       2.798e-01       4.143e-03           0.093           0.004          -0.996       2.455e-03          0.5851
 566       1.143e-01       2.798e-01       7.114e-04           0.121           0.006          -0.993       2.567e-03          0.6003
 567       8.237e-02       2.798e-01      -2.698e-03           0.091           0.005          -0.996       2.455e-03          0.6659
 568       5.307e-02       2.798e-01      -4.655e-03           0.038           0.003          -0.999       2.145e-03          0.7982
 569       2.873e-02       2.798e-01      -4.974e-03          -0.019           0.002          -1.000       1.669e-03          0.9641
 570       1.132e-02       2.798e-01      -3.920e-03          -0.125           0.001          -0.992       1.067e-03          0.7812
 571       2.245e-03       2.798e-01      -1.235e-03          -0.621          -0.000          -0.784       4.627e-04         -2.7463
 572       2.245e-03       2.798e-01       4.766e-03          -0.874           0.000           0.486       7.462e-04        -10.6364
 573       1.132e-02       2.798e-01       1.286e-02          -0.502           0.002           0.865       1.224e-03         -6.0118
 574       2.873e-02       2.798e-01       2.006e-02          -0.294           0.005           0.956       1.746e-03         -3.7346
 575       5.307e-02       2.798e-01       2.527e-02          -0.140           0.008           0.990       2.165e-03         -2.6845
 576       8.237e-02       2.798e-01       2.738e-02          -0.012           0.012           1.000       2.445e-03         -1.9539
 577       1.143e-01       2.798e-01       2.605e-02           0.092           0.016           0.996       2.559e-03         -1.3633
 578       1.461e-01       2.798e-01       2.167e-02           0.180           0.021           0.983       2.486e-03         -0.8483
 579       1.754e-01       2.798e-01       1.556e-02           0.231           0.025           0.973       2.204e-03         -0.4553
 580       1.998e-01       2.798e-01       9.438e-03           0.259           0.027           0.965       1.728e-03         -0.2084
 581       2.172e-01       2.798e-01       4.351e-03           0.312           0.032           0.949       1.115e-03          0.0201
 582       2.263e-01       2.798e-01       1.064e-03           0.417           0.042           0.908       3.994e-04          0.2508
Strip 27
 583       2.185e-01       3.573e-01       7.865e-04          -0.332          -0.034          -0.943       3.636e-04          0.5400
 584       2.097e-01       3.573e-01       2.969e-03          -0.209          -0.022          -0.978       1.024e-03          0.5442
 585       1.929e-01       3.573e-01       5.195e-03          -0.080          -0.010          -0.997       1.583e-03          0.5879
 586       1.694e-01       3.573e-01       5.714e-03           0.024          -0.001          -1.000       2.027e-03          0.5895
 587       1.411e-01       3.573e-01       4.000e-03           0.093           0.004          -0.996       2.321e-03          0.5872
 588       1.103e-01       3.573e-01       6.869e-04           0.121           0.006          -0.993       2.427e-03          0.6032
 589       7.954e-02       3.573e-01      -2.605e-03           0.091           0.005          -0.996       2.321e-03          0.6696
 590       5.125e-02       3.573e-01      -4.494e-03           0.038           0.003          -0.999       2.028e-03          0.8021
 591       2.774e-02       3.573e-01      -4.803e-03          -0.019           0.002          -1.000       1.578e-03          0.9665
 592       1.093e-02       3.573e-01      -3.785e-03          -0.125           0.001          -0.992       1.009e-03          0.7697
 593       2.167e-03       3.573e-01      -1.192e-03          -0.621          -0.000          -0.784       4.375e-04         -2.8314
 594       2.167e-03       3.573e-01       4.602e-03          -0.874           0.000           0.486       7.055e-04        -10.7920
 595       1.093e-02       3.573e-01       1.241e-02          -0.502           0.002           0.865       1.157e-03         -6.0783
 596       2.774e-02       3.573e-01       1.937e-02          -0.294           0.005           0.956       1.651e-03         -3.7700
 597       5.125e-02       3.573e-01       2.440e-02          -0.140           0.008           0.990       2.047e-03         -2.7078
 598       7.954e-02       3.573e-01       2.643e-02          -0.012           0.012           1.000       2.312e-03         -1.9702
 599       1.103e-01       3.573e-01       2.515e-02           0.092           0.016           0.996       2.420e-03         -1.3748
 600       1.411e-01       3.573e-01       2.093e-02           0.180           0.021           0.983       2.350e-03         -0.8562
 601       1.694e-01       3.573e-01       1.502e-02           0.231           0.025           0.973       2.084e-03         -0.4605
 602       1.929e-01       3.573e-01       9.113e-03           0.259           0.027           0.965       1.634e-03         -0.2119
 603       2.097e-01       3.573e-01       4.201e-03           0.312           0.032           0.949       1.054e-03          0.0180
 604       2.185e-01       3.573e-01       1.028e-03           0.417           0.042           0.908       3.777e-04          0.2495
Strip 28
[...]
 830       7.709e-02       1.012e+00       4.800e-04           0.121           0.006          -0.993       8.000e-04          0.4795
 831       5.558e-02       1.012e+00      -1.821e-03           0.091           0.005          -0.996       7.652e-04          0.5261
 832       3.581e-02       1.012e+00      -3.141e-03           0.038           0.003          -0.999       6.686e-04          0.6584
 833       1.939e-02       1.012e+00      -3.356e-03          -0.019           0.002          -1.000       5.202e-04          0.8646
 834       7.637e-03       1.012e+00      -2.645e-03          -0.125           0.001          -0.992       3.325e-04          0.9636
 835       1.515e-03       1.012e+00      -8.331e-04          -0.621          -0.000          -0.784       1.442e-04         -1.0829
 836       1.515e-03       1.012e+00       3.216e-03          -0.874           0.000           0.486       2.326e-04         -7.4575
 837       7.637e-03       1.012e+00       8.675e-03          -0.502           0.002           0.865       3.815e-04         -4.6207
 838       1.939e-02       1.012e+00       1.353e-02          -0.294           0.005           0.956       5.441e-04         -2.9606
 839       3.581e-02       1.012e+00       1.705e-02          -0.140           0.008           0.990       6.747e-04         -2.1500
 840       5.558e-02       1.012e+00       1.847e-02          -0.012           0.012           1.000       7.621e-04         -1.5663
 841       7.709e-02       1.012e+00       1.757e-02           0.092           0.016           0.996       7.977e-04         -1.0922
 842       9.860e-02       1.012e+00       1.462e-02           0.180           0.021           0.983       7.749e-04         -0.6801
 843       1.184e-01       1.012e+00       1.050e-02           0.231           0.025           0.973       6.869e-04         -0.3702
 844       1.348e-01       1.012e+00       6.368e-03           0.259           0.027           0.965       5.387e-04         -0.1834
 845       1.465e-01       1.012e+00       2.936e-03           0.312           0.032           0.949       3.475e-04         -0.0063
 846       1.527e-01       1.012e+00       7.181e-04           0.417           0.042           0.908       1.245e-04          0.1931
Strip 39
 847       1.493e-01       1.045e+00       5.375e-04          -0.332          -0.034          -0.943       1.002e-04          0.4487
 848       1.433e-01       1.045e+00       2.029e-03          -0.209          -0.022          -0.978       2.821e-04          0.4452
 849       1.318e-01       1.045e+00       3.550e-03          -0.080          -0.010          -0.997       4.362e-04          0.4808
 850       1.158e-01       1.045e+00       3.905e-03           0.024          -0.001          -1.000       5.587e-04          0.4661
 851       9.642e-02       1.045e+00       2.734e-03           0.093           0.004          -0.996       6.398e-04          0.4366
 852       7.539e-02       1.045e+00       4.694e-04           0.121           0.006          -0.993       6.689e-04          0.4188
 853       5.435e-02       1.045e+00      -1.780e-03           0.091           0.005          -0.996       6.397e-04          0.4596
 854       3.502e-02       1.045e+00      -3.071e-03           0.038           0.003          -0.999       5.590e-04          0.5932
 855       1.896e-02       1.045e+00      -3.282e-03          -0.019           0.002          -1.000       4.349e-04          0.8119
 856       7.469e-03       1.045e+00      -2.586e-03          -0.125           0.001          -0.992       2.780e-04          0.9873
 857       1.481e-03       1.045e+00      -8.147e-04          -0.621          -0.000          -0.784       1.206e-04         -0.6224
 858       1.481e-03       1.045e+00       3.145e-03          -0.874           0.000           0.486       1.945e-04         -6.4803
 859       7.469e-03       1.045e+00       8.483e-03          -0.502           0.002           0.865       3.190e-04         -4.1702
 860       1.896e-02       1.045e+00       1.324e-02          -0.294           0.005           0.956       4.549e-04         -2.6977
 861       3.502e-02       1.045e+00       1.667e-02          -0.140           0.008           0.990       5.641e-04         -1.9604
 862       5.435e-02       1.045e+00       1.806e-02          -0.012           0.012           1.000       6.371e-04         -1.4244
 863       7.539e-02       1.045e+00       1.719e-02           0.092           0.016           0.996       6.669e-04         -0.9915
 864       9.642e-02       1.045e+00       1.430e-02           0.180           0.021           0.983       6.478e-04         -0.6202
 865       1.158e-01       1.045e+00       1.026e-02           0.231           0.025           0.973       5.743e-04         -0.3462
 866       1.318e-01       1.045e+00       6.227e-03           0.259           0.027           0.965       4.504e-04         -0.1865
 867       1.433e-01       1.045e+00       2.871e-03           0.312           0.032           0.949       2.905e-04         -0.0331
 868       1.493e-01       1.045e+00       7.022e-04           0.417           0.042           0.908       1.041e-04          0.1519
Strip 40
 869       1.465e-01       1.073e+00       5.273e-04          -0.332          -0.034          -0.943       8.114e-05          0.3714
 870       1.406e-01       1.073e+00       1.990e-03          -0.209          -0.022          -0.978       2.284e-04          0.3687
 871       1.293e-01       1.073e+00       3.482e-03          -0.080          -0.010          -0.997       3.531e-04          0.4045
 872       1.136e-01       1.073e+00       3.830e-03           0.024          -0.001          -1.000       4.523e-04          0.3855
 873       9.459e-02       1.073e+00       2.682e-03           0.093           0.004          -0.996       5.180e-04          0.3492
 874       7.395e-02       1.073e+00       4.605e-04           0.121           0.006          -0.993       5.415e-04          0.3253
 875       5.332e-02       1.073e+00      -1.747e-03           0.091           0.005          -0.996       5.179e-04          0.3646
 876       3.435e-02       1.073e+00      -3.013e-03           0.038           0.003          -0.999       4.525e-04          0.5025
 877       1.860e-02       1.073e+00      -3.220e-03          -0.019           0.002          -1.000       3.521e-04          0.7352
 878       7.327e-03       1.073e+00      -2.537e-03          -0.125           0.001          -0.992       2.250e-04          0.9871
 879       1.453e-03       1.073e+00      -7.992e-04          -0.621          -0.000          -0.784       9.762e-05         -0.1606
 880       1.453e-03       1.073e+00       3.085e-03          -0.874           0.000           0.486       1.574e-04         -5.4251
 881       7.327e-03       1.073e+00       8.322e-03          -0.502           0.002           0.865       2.582e-04         -3.6677
 882       1.860e-02       1.073e+00       1.298e-02          -0.294           0.005           0.956       3.683e-04         -2.3948
 883       3.435e-02       1.073e+00       1.635e-02          -0.140           0.008           0.990       4.567e-04         -1.7382
 884       5.332e-02       1.073e+00       1.772e-02          -0.012           0.012           1.000       5.158e-04         -1.2587
 885       7.395e-02       1.073e+00       1.686e-02           0.092           0.016           0.996       5.399e-04         -0.8789
 886       9.459e-02       1.073e+00       1.403e-02           0.180           0.021           0.983       5.244e-04         -0.5609
 887       1.136e-01       1.073e+00       1.007e-02           0.231           0.025           0.973       4.649e-04         -0.3355
 888       1.293e-01       1.073e+00       6.109e-03           0.259           0.027           0.965       3.646e-04         -0.2148
 889       1.406e-01       1.073e+00       2.817e-03           0.312           0.032           0.949       2.352e-04         -0.0994
 890       1.465e-01       1.073e+00       6.889e-04           0.417           0.042           0.908       8.426e-05          0.0571
Strip 41
 891       1.442e-01       1.096e+00       5.190e-04          -0.332          -0.034          -0.943       6.255e-05          0.1606
 892       1.384e-01       1.096e+00       1.959e-03          -0.209          -0.022          -0.978       1.761e-04          0.1769
 893       1.273e-01       1.096e+00       3.428e-03          -0.080          -0.010          -0.997       2.722e-04          0.2340
 894       1.118e-01       1.096e+00       3.771e-03           0.024          -0.001          -1.000       3.487e-04          0.2221
 895       9.311e-02       1.096e+00       2.640e-03           0.093           0.004          -0.996       3.993e-04          0.1923
 896       7.280e-02       1.096e+00       4.533e-04           0.121           0.006          -0.993       4.174e-04          0.1783
 897       5.249e-02       1.096e+00      -1.719e-03           0.091           0.005          -0.996       3.992e-04          0.2283
 898       3.382e-02       1.096e+00      -2.966e-03           0.038           0.003          -0.999       3.488e-04          0.3765
 899       1.831e-02       1.096e+00      -3.170e-03          -0.019           0.002          -1.000       2.714e-04          0.6237
 900       7.212e-03       1.096e+00      -2.497e-03          -0.125           0.001          -0.992       1.735e-04          0.9464
 901       1.430e-03       1.096e+00      -7.867e-04          -0.621          -0.000          -0.784       7.525e-05          0.2617
 902       1.430e-03       1.096e+00       3.037e-03          -0.874           0.000           0.486       1.214e-04         -4.3410
 903       7.212e-03       1.096e+00       8.192e-03          -0.502           0.002           0.865       1.991e-04         -3.1275
 904       1.831e-02       1.096e+00       1.278e-02          -0.294           0.005           0.956       2.839e-04         -2.0575
 905       3.382e-02       1.096e+00       1.610e-02          -0.140           0.008           0.990       3.520e-04         -1.4910
 906       5.249e-02       1.096e+00       1.744e-02          -0.012           0.012           1.000       3.976e-04         -1.0850
 907       7.280e-02       1.096e+00       1.660e-02           0.092           0.016           0.996       4.162e-04         -0.7775
 908       9.311e-02       1.096e+00       1.381e-02           0.180           0.021           0.983       4.043e-04         -0.5362
 909       1.118e-01       1.096e+00       9.912e-03           0.231           0.025           0.973       3.584e-04         -0.3815
 910       1.273e-01       1.096e+00       6.013e-03           0.259           0.027           0.965       2.811e-04         -0.3092
 911       1.384e-01       1.096e+00       2.773e-03           0.312           0.032           0.949       1.813e-04         -0.2001
 912       1.442e-01       1.096e+00       6.781e-04           0.417           0.042           0.908       6.496e-05         -0.0527
Strip 42
 913       1.424e-01       1.113e+00       5.128e-04          -0.332          -0.034          -0.943       4.437e-05         -0.2810
 914       1.367e-01       1.113e+00       1.935e-03          -0.209          -0.022          -0.978       1.249e-04         -0.2670
 915       1.258e-01       1.113e+00       3.387e-03          -0.080          -0.010          -0.997       1.931e-04         -0.1995
 916       1.104e-01       1.113e+00       3.726e-03           0.024          -0.001          -1.000       2.473e-04         -0.1644
 917       9.200e-02       1.113e+00       2.608e-03           0.093           0.004          -0.996       2.832e-04         -0.1147
 918       7.193e-02       1.113e+00       4.478e-04           0.121           0.006          -0.993       2.961e-04         -0.0551
 919       5.186e-02       1.113e+00      -1.699e-03           0.091           0.005          -0.996       2.832e-04          0.0397
 920       3.341e-02       1.113e+00      -2.930e-03           0.038           0.003          -0.999       2.474e-04          0.2056
 921       1.809e-02       1.113e+00      -3.132e-03          -0.019           0.002          -1.000       1.925e-04          0.4590
 922       7.126e-03       1.113e+00      -2.468e-03          -0.125           0.001          -0.992       1.231e-04          0.8369
 923       1.413e-03       1.113e+00      -7.773e-04          -0.621          -0.000          -0.784       5.338e-05          0.5996
 924       1.413e-03       1.113e+00       3.000e-03          -0.874           0.000           0.486       8.608e-05         -3.2832
 925       7.126e-03       1.113e+00       8.094e-03          -0.502           0.002           0.865       1.412e-04         -2.5670
 926       1.809e-02       1.113e+00       1.263e-02          -0.294           0.005           0.956       2.014e-04         -1.7013
 927       3.341e-02       1.113e+00       1.591e-02          -0.140           0.008           0.990       2.497e-04         -1.2440
 928       5.186e-02       1.113e+00       1.723e-02          -0.012           0.012           1.000       2.820e-04         -0.9362
 929       7.193e-02       1.113e+00       1.640e-02           0.092           0.016           0.996       2.952e-04         -0.7399
 930       9.200e-02       1.113e+00       1.365e-02           0.180           0.021           0.983       2.868e-04         -0.6423
 931       1.104e-01       1.113e+00       9.793e-03           0.231           0.025           0.973       2.542e-04         -0.6438
 932       1.258e-01       1.113e+00       5.941e-03           0.259           0.027           0.965       1.994e-04         -0.6927
 933       1.367e-01       1.113e+00       2.739e-03           0.312           0.032           0.949       1.286e-04         -0.6601
 934       1.424e-01       1.113e+00       6.700e-04           0.417           0.042           0.908       4.608e-05         -0.5365
Strip 43
 935       1.413e-01       1.125e+00       5.087e-04          -0.332          -0.034          -0.943       2.649e-05         -2.0648
 936       1.356e-01       1.125e+00       1.920e-03          -0.209          -0.022          -0.978       7.458e-05         -2.2838
 937       1.247e-01       1.125e+00       3.359e-03          -0.080          -0.010          -0.997       1.153e-04         -1.9030
 938       1.095e-01       1.125e+00       3.695e-03           0.024          -0.001          -1.000       1.477e-04         -1.1823
 939       9.125e-02       1.125e+00       2.587e-03           0.093           0.004          -0.996       1.691e-04         -0.6485
 940       7.134e-02       1.125e+00       4.442e-04           0.121           0.006          -0.993       1.768e-04         -0.3663
 941       5.144e-02       1.125e+00      -1.685e-03           0.091           0.005          -0.996       1.691e-04         -0.1810
 942       3.314e-02       1.125e+00      -2.907e-03           0.038           0.003          -0.999       1.478e-04          0.0053
 943       1.794e-02       1.125e+00      -3.106e-03          -0.019           0.002          -1.000       1.150e-04          0.2359
 944       7.068e-03       1.125e+00      -2.448e-03          -0.125           0.001          -0.992       7.348e-05          0.6070
 945       1.402e-03       1.125e+00      -7.710e-04          -0.621          -0.000          -0.784       3.188e-05          0.7685
 946       1.402e-03       1.125e+00       2.976e-03          -0.874           0.000           0.486       5.140e-05         -2.3271
 947       7.068e-03       1.125e+00       8.028e-03          -0.502           0.002           0.865       8.432e-05         -2.0242
 948       1.794e-02       1.125e+00       1.253e-02          -0.294           0.005           0.956       1.203e-04         -1.3677
 949       3.314e-02       1.125e+00       1.578e-02          -0.140           0.008           0.990       1.491e-04         -1.0398
 950       5.144e-02       1.125e+00       1.709e-02          -0.012           0.012           1.000       1.684e-04         -0.8551
 951       7.134e-02       1.125e+00       1.626e-02           0.092           0.016           0.996       1.763e-04         -0.8157
 952       9.125e-02       1.125e+00       1.353e-02           0.180           0.021           0.983       1.713e-04         -1.0109
 953       1.095e-01       1.125e+00       9.714e-03           0.231           0.025           0.973       1.518e-04         -1.5890
 954       1.247e-01       1.125e+00       5.893e-03           0.259           0.027           0.965       1.191e-04         -2.4251
 955       1.356e-01       1.125e+00       2.717e-03           0.312           0.032           0.949       7.679e-05         -2.9752
 956       1.413e-01       1.125e+00       6.646e-04           0.417           0.042           0.908       2.752e-05         -3.1985
Strip 44
 957       1.407e-01       1.131e+00       5.066e-04          -0.332          -0.034          -0.943       8.810e-06         -4.2087
 958       1.351e-01       1.131e+00       1.912e-03          -0.209          -0.022          -0.978       2.480e-05         -4.9480
 959       1.242e-01       1.131e+00       3.346e-03          -0.080          -0.010          -0.997       3.835e-05         -4.1794
 960       1.091e-01       1.131e+00       3.680e-03           0.024          -0.001          -1.000       4.911e-05         -2.3927
 961       9.088e-02       1.131e+00       2.576e-03           0.093           0.004          -0.996       5.624e-05         -1.1596
 962       7.105e-02       1.131e+00       4.424e-04           0.121           0.006          -0.993       5.880e-05         -0.5996
 963       5.123e-02       1.131e+00      -1.678e-03           0.091           0.005          -0.996       5.624e-05         -0.3235
 964       3.301e-02       1.131e+00      -2.895e-03           0.038           0.003          -0.999       4.914e-05         -0.1213
 965       1.787e-02       1.131e+00      -3.093e-03          -0.019           0.002          -1.000       3.823e-05          0.0875
 966       7.039e-03       1.131e+00      -2.437e-03          -0.125           0.001          -0.992       2.444e-05          0.4118
 967       1.396e-03       1.131e+00      -7.678e-04          -0.621          -0.000          -0.784       1.060e-05          0.7707
 968       1.396e-03       1.131e+00       2.964e-03          -0.874           0.000           0.486       1.709e-05         -1.6614
 969       7.039e-03       1.131e+00       7.995e-03          -0.502           0.002           0.865       2.804e-05         -1.6189
 970       1.787e-02       1.131e+00       1.247e-02          -0.294           0.005           0.956       3.999e-05         -1.1265
 971       3.301e-02       1.131e+00       1.571e-02          -0.140           0.008           0.990       4.959e-05         -0.9043
 972       5.123e-02       1.131e+00       1.702e-02          -0.012           0.012           1.000       5.601e-05         -0.8174
 973       7.105e-02       1.131e+00       1.620e-02           0.092           0.016           0.996       5.862e-05         -0.8959
 974       9.088e-02       1.131e+00       1.348e-02           0.180           0.021           0.983       5.695e-05         -1.3281
 975       1.091e-01       1.131e+00       9.674e-03           0.231           0.025           0.973       5.048e-05         -2.5310
 976       1.242e-01       1.131e+00       5.869e-03           0.259           0.027           0.965       3.959e-05         -4.4607
 977       1.351e-01       1.131e+00       2.706e-03           0.312           0.032           0.949       2.554e-05         -5.8232
 978       1.407e-01       1.131e+00       6.618e-04           0.417           0.042           0.908       9.150e-06         -6.5824










